/*---------------------------------------------------------------------------*\
| =========                 |                                                 |
| \\      /  F ield         | OpenFOAM: The Open Source CFD Toolbox           |
|  \\    /   O peration     | Version:  2406                                  |
|   \\  /    A nd           | Website:  www.openfoam.com                      |
|    \\/     M anipulation  |                                                 |
\*---------------------------------------------------------------------------*/
Build  : _be01ca78-20240625 OPENFOAM=2406 version=2406
Arch   : "LSB;label=32;scalar=64"
Exec   : simpleFoam
Date   : Nov 10 2024
Time   : 18:49:18
Host   : DA-IT-00084
PID    : 47668
I/O    : uncollated
Case   : /home/shaun/code/rocketeering/modeling/fluid/openFOAM
nProcs : 1
trapFpe: Floating point exception trapping enabled (FOAM_SIGFPE).
fileModificationChecking : Monitoring run-time modified files using timeStampMaster (fileModificationSkew 5, maxFileModificationPolls 20)
allowSystemOperations : Allowing user-supplied system call operations

// * * * * * * * * * * * * * * * * * * * * * * * * * * * * * * * * * * * * * //
Create time

Create mesh for time = 0


SIMPLE: convergence criteria
    field p	 tolerance 0.01
    field U	 tolerance 0.001
    field "(k|epsilon|omega|f|v2)"	 tolerance 0.001

Reading field p

Reading field U

Reading/calculating face flux field phi

Selecting incompressible transport model Newtonian
Selecting turbulence model type RAS
Selecting RAS turbulence model kEpsilon
RAS
{
    RASModel        kEpsilon;
    turbulence      on;
    printCoeffs     on;
    Cmu             0.09;
    C1              1.44;
    C2              1.92;
    C3              0;
    sigmak          1;
    sigmaEps        1.3;
}

No MRF models present

No finite volume options present

Starting time loop

streamLine streamlines:
    Employing velocity field U
    automatic track length specified through number of sub cycles : 5

Time = 1

smoothSolver:  Solving for Ux, Initial residual = 1, Final residual = 0.0538101, No Iterations 1
smoothSolver:  Solving for Uy, Initial residual = 1, Final residual = 0.030925, No Iterations 2
GAMG:  Solving for p, Initial residual = 1, Final residual = 0.068427, No Iterations 17
time step continuity errors : sum local = 1.19733, global = 0.179883, cumulative = 0.179883
smoothSolver:  Solving for epsilon, Initial residual = 0.199984, Final residual = 0.0100282, No Iterations 3
bounding epsilon, min: -1.98669 max: 1080.25 average: 47.5305
smoothSolver:  Solving for k, Initial residual = 1, Final residual = 0.0439204, No Iterations 3
ExecutionTime = 0.09 s  ClockTime = 0 s

Time = 2

smoothSolver:  Solving for Ux, Initial residual = 0.437824, Final residual = 0.0308241, No Iterations 5
smoothSolver:  Solving for Uy, Initial residual = 0.283531, Final residual = 0.0258525, No Iterations 4
GAMG:  Solving for p, Initial residual = 0.052242, Final residual = 0.00424173, No Iterations 15
time step continuity errors : sum local = 4.02676, global = 0.102657, cumulative = 0.28254
smoothSolver:  Solving for epsilon, Initial residual = 0.153314, Final residual = 0.0109476, No Iterations 3
bounding epsilon, min: -40.6096 max: 23853.2 average: 84.8817
smoothSolver:  Solving for k, Initial residual = 0.419186, Final residual = 0.0313044, No Iterations 3
ExecutionTime = 0.11 s  ClockTime = 0 s

Time = 3

smoothSolver:  Solving for Ux, Initial residual = 0.123694, Final residual = 0.0111619, No Iterations 4
smoothSolver:  Solving for Uy, Initial residual = 0.201901, Final residual = 0.0159711, No Iterations 4
GAMG:  Solving for p, Initial residual = 0.148196, Final residual = 0.0113699, No Iterations 6
time step continuity errors : sum local = 3.12434, global = 0.30379, cumulative = 0.586331
smoothSolver:  Solving for epsilon, Initial residual = 0.101901, Final residual = 0.00839797, No Iterations 2
bounding epsilon, min: -69.1334 max: 35025.5 average: 124.355
smoothSolver:  Solving for k, Initial residual = 0.179557, Final residual = 0.0142445, No Iterations 3
ExecutionTime = 0.14 s  ClockTime = 0 s

Time = 4

smoothSolver:  Solving for Ux, Initial residual = 0.0683409, Final residual = 0.00439198, No Iterations 5
smoothSolver:  Solving for Uy, Initial residual = 0.101704, Final residual = 0.00835227, No Iterations 4
GAMG:  Solving for p, Initial residual = 0.123471, Final residual = 0.0108573, No Iterations 6
time step continuity errors : sum local = 1.89243, global = 0.154483, cumulative = 0.740814
smoothSolver:  Solving for epsilon, Initial residual = 0.0786544, Final residual = 0.00548047, No Iterations 2
smoothSolver:  Solving for k, Initial residual = 0.116407, Final residual = 0.0103674, No Iterations 3
ExecutionTime = 0.15 s  ClockTime = 0 s

Time = 5

smoothSolver:  Solving for Ux, Initial residual = 0.0574847, Final residual = 0.00396815, No Iterations 5
smoothSolver:  Solving for Uy, Initial residual = 0.0873488, Final residual = 0.0084105, No Iterations 4
GAMG:  Solving for p, Initial residual = 0.11757, Final residual = 0.0113872, No Iterations 3
time step continuity errors : sum local = 1.29939, global = 0.0271982, cumulative = 0.768012
smoothSolver:  Solving for epsilon, Initial residual = 0.0516698, Final residual = 0.00466781, No Iterations 2
smoothSolver:  Solving for k, Initial residual = 0.0867416, Final residual = 0.00503738, No Iterations 4
ExecutionTime = 0.16 s  ClockTime = 0 s

Time = 6

smoothSolver:  Solving for Ux, Initial residual = 0.0517273, Final residual = 0.00383623, No Iterations 5
smoothSolver:  Solving for Uy, Initial residual = 0.073056, Final residual = 0.00507237, No Iterations 5
GAMG:  Solving for p, Initial residual = 0.0953938, Final residual = 0.00731502, No Iterations 4
time step continuity errors : sum local = 0.778953, global = -0.111813, cumulative = 0.656199
smoothSolver:  Solving for epsilon, Initial residual = 0.0370541, Final residual = 0.00218789, No Iterations 3
smoothSolver:  Solving for k, Initial residual = 0.0693129, Final residual = 0.00485356, No Iterations 4
ExecutionTime = 0.17 s  ClockTime = 0 s

Time = 7

smoothSolver:  Solving for Ux, Initial residual = 0.0480508, Final residual = 0.00383135, No Iterations 5
smoothSolver:  Solving for Uy, Initial residual = 0.0633656, Final residual = 0.00455588, No Iterations 5
GAMG:  Solving for p, Initial residual = 0.0748211, Final residual = 0.00519849, No Iterations 4
time step continuity errors : sum local = 0.55727, global = -0.0717714, cumulative = 0.584428
smoothSolver:  Solving for epsilon, Initial residual = 0.0308998, Final residual = 0.00198873, No Iterations 3
smoothSolver:  Solving for k, Initial residual = 0.0592453, Final residual = 0.0044811, No Iterations 4
ExecutionTime = 0.19 s  ClockTime = 0 s

Time = 8

smoothSolver:  Solving for Ux, Initial residual = 0.0439677, Final residual = 0.00374444, No Iterations 5
smoothSolver:  Solving for Uy, Initial residual = 0.0585987, Final residual = 0.00441767, No Iterations 5
GAMG:  Solving for p, Initial residual = 0.0628279, Final residual = 0.00402377, No Iterations 4
time step continuity errors : sum local = 0.439378, global = -0.056268, cumulative = 0.52816
smoothSolver:  Solving for epsilon, Initial residual = 0.0306102, Final residual = 0.00206875, No Iterations 3
smoothSolver:  Solving for k, Initial residual = 0.0537902, Final residual = 0.00419082, No Iterations 4
ExecutionTime = 0.21 s  ClockTime = 0 s

Time = 9

smoothSolver:  Solving for Ux, Initial residual = 0.0407161, Final residual = 0.0036137, No Iterations 5
smoothSolver:  Solving for Uy, Initial residual = 0.0550205, Final residual = 0.00426956, No Iterations 5
GAMG:  Solving for p, Initial residual = 0.0546261, Final residual = 0.00508927, No Iterations 3
time step continuity errors : sum local = 0.567358, global = 0.0497502, cumulative = 0.57791
smoothSolver:  Solving for epsilon, Initial residual = 0.0296153, Final residual = 0.00212186, No Iterations 3
smoothSolver:  Solving for k, Initial residual = 0.0499125, Final residual = 0.00400586, No Iterations 4
ExecutionTime = 0.22 s  ClockTime = 0 s

Time = 10

smoothSolver:  Solving for Ux, Initial residual = 0.0381992, Final residual = 0.00345368, No Iterations 5
smoothSolver:  Solving for Uy, Initial residual = 0.0511263, Final residual = 0.00414664, No Iterations 5
GAMG:  Solving for p, Initial residual = 0.0502217, Final residual = 0.00431801, No Iterations 3
time step continuity errors : sum local = 0.495037, global = 0.025737, cumulative = 0.603647
smoothSolver:  Solving for epsilon, Initial residual = 0.0277304, Final residual = 0.00214179, No Iterations 3
smoothSolver:  Solving for k, Initial residual = 0.0467778, Final residual = 0.00381385, No Iterations 4
ExecutionTime = 0.24 s  ClockTime = 0 s

Time = 11

smoothSolver:  Solving for Ux, Initial residual = 0.0358154, Final residual = 0.00328532, No Iterations 5
smoothSolver:  Solving for Uy, Initial residual = 0.0479384, Final residual = 0.00401465, No Iterations 5
GAMG:  Solving for p, Initial residual = 0.0509612, Final residual = 0.00394927, No Iterations 3
time step continuity errors : sum local = 0.48585, global = 0.0178913, cumulative = 0.621538
smoothSolver:  Solving for epsilon, Initial residual = 0.0259189, Final residual = 0.00215587, No Iterations 3
smoothSolver:  Solving for k, Initial residual = 0.0439574, Final residual = 0.00360215, No Iterations 4
ExecutionTime = 0.25 s  ClockTime = 0 s

Time = 12

smoothSolver:  Solving for Ux, Initial residual = 0.0334868, Final residual = 0.00310378, No Iterations 5
smoothSolver:  Solving for Uy, Initial residual = 0.0459526, Final residual = 0.003919, No Iterations 5
GAMG:  Solving for p, Initial residual = 0.0485044, Final residual = 0.00400972, No Iterations 3
time step continuity errors : sum local = 0.461352, global = 0.0136916, cumulative = 0.63523
smoothSolver:  Solving for epsilon, Initial residual = 0.02458, Final residual = 0.00215042, No Iterations 3
smoothSolver:  Solving for k, Initial residual = 0.0416386, Final residual = 0.00342887, No Iterations 4
ExecutionTime = 0.27 s  ClockTime = 0 s

Time = 13

smoothSolver:  Solving for Ux, Initial residual = 0.0315954, Final residual = 0.00292786, No Iterations 5
smoothSolver:  Solving for Uy, Initial residual = 0.044572, Final residual = 0.00384352, No Iterations 5
GAMG:  Solving for p, Initial residual = 0.0484112, Final residual = 0.00373291, No Iterations 3
time step continuity errors : sum local = 0.428428, global = 0.010949, cumulative = 0.646179
smoothSolver:  Solving for epsilon, Initial residual = 0.0232677, Final residual = 0.00210407, No Iterations 3
smoothSolver:  Solving for k, Initial residual = 0.0396427, Final residual = 0.00327213, No Iterations 4
ExecutionTime = 0.29 s  ClockTime = 0 s

Time = 14

smoothSolver:  Solving for Ux, Initial residual = 0.0298535, Final residual = 0.00276199, No Iterations 5
smoothSolver:  Solving for Uy, Initial residual = 0.0437896, Final residual = 0.00378808, No Iterations 5
GAMG:  Solving for p, Initial residual = 0.0468847, Final residual = 0.00367794, No Iterations 3
time step continuity errors : sum local = 0.404316, global = 0.00627137, cumulative = 0.65245
smoothSolver:  Solving for epsilon, Initial residual = 0.0220542, Final residual = 0.00205185, No Iterations 3
smoothSolver:  Solving for k, Initial residual = 0.0375559, Final residual = 0.00308706, No Iterations 4
ExecutionTime = 0.3 s  ClockTime = 0 s

Time = 15

smoothSolver:  Solving for Ux, Initial residual = 0.0280045, Final residual = 0.00260643, No Iterations 5
smoothSolver:  Solving for Uy, Initial residual = 0.042815, Final residual = 0.00372674, No Iterations 5
GAMG:  Solving for p, Initial residual = 0.0435234, Final residual = 0.00361361, No Iterations 3
time step continuity errors : sum local = 0.384746, global = 0.00146785, cumulative = 0.653918
smoothSolver:  Solving for epsilon, Initial residual = 0.0205768, Final residual = 0.00195694, No Iterations 3
smoothSolver:  Solving for k, Initial residual = 0.0352777, Final residual = 0.00289582, No Iterations 4
ExecutionTime = 0.32 s  ClockTime = 0 s

Time = 16

smoothSolver:  Solving for Ux, Initial residual = 0.026192, Final residual = 0.00246219, No Iterations 5
smoothSolver:  Solving for Uy, Initial residual = 0.0415237, Final residual = 0.00366445, No Iterations 5
GAMG:  Solving for p, Initial residual = 0.0406359, Final residual = 0.00356972, No Iterations 3
time step continuity errors : sum local = 0.373415, global = -0.00198992, cumulative = 0.651928
smoothSolver:  Solving for epsilon, Initial residual = 0.0193731, Final residual = 0.00185076, No Iterations 3
smoothSolver:  Solving for k, Initial residual = 0.0334353, Final residual = 0.00273522, No Iterations 4
ExecutionTime = 0.33 s  ClockTime = 0 s

Time = 17

smoothSolver:  Solving for Ux, Initial residual = 0.0245964, Final residual = 0.0023268, No Iterations 5
smoothSolver:  Solving for Uy, Initial residual = 0.0400992, Final residual = 0.0036004, No Iterations 5
GAMG:  Solving for p, Initial residual = 0.0384, Final residual = 0.00363331, No Iterations 3
time step continuity errors : sum local = 0.371547, global = -0.00582049, cumulative = 0.646108
smoothSolver:  Solving for epsilon, Initial residual = 0.0181678, Final residual = 0.00175972, No Iterations 3
smoothSolver:  Solving for k, Initial residual = 0.031662, Final residual = 0.0025705, No Iterations 4
ExecutionTime = 0.35 s  ClockTime = 0 s

Time = 18

smoothSolver:  Solving for Ux, Initial residual = 0.0232551, Final residual = 0.0022, No Iterations 5
smoothSolver:  Solving for Uy, Initial residual = 0.0385717, Final residual = 0.00352818, No Iterations 5
GAMG:  Solving for p, Initial residual = 0.0369961, Final residual = 0.00369846, No Iterations 3
time step continuity errors : sum local = 0.369285, global = -0.00820135, cumulative = 0.637906
smoothSolver:  Solving for epsilon, Initial residual = 0.017251, Final residual = 0.00166381, No Iterations 3
smoothSolver:  Solving for k, Initial residual = 0.0297666, Final residual = 0.00241269, No Iterations 4
ExecutionTime = 0.36 s  ClockTime = 0 s

Time = 19

smoothSolver:  Solving for Ux, Initial residual = 0.0219793, Final residual = 0.00207953, No Iterations 5
smoothSolver:  Solving for Uy, Initial residual = 0.037155, Final residual = 0.00345046, No Iterations 5
GAMG:  Solving for p, Initial residual = 0.035536, Final residual = 0.00262988, No Iterations 4
time step continuity errors : sum local = 0.255695, global = 0.0291415, cumulative = 0.667048
smoothSolver:  Solving for epsilon, Initial residual = 0.0164614, Final residual = 0.00158591, No Iterations 3
smoothSolver:  Solving for k, Initial residual = 0.0282608, Final residual = 0.00227967, No Iterations 4
ExecutionTime = 0.38 s  ClockTime = 0 s

Time = 20

smoothSolver:  Solving for Ux, Initial residual = 0.0207129, Final residual = 0.00195945, No Iterations 5
smoothSolver:  Solving for Uy, Initial residual = 0.0358361, Final residual = 0.0033566, No Iterations 5
GAMG:  Solving for p, Initial residual = 0.0337248, Final residual = 0.00319174, No Iterations 3
time step continuity errors : sum local = 0.301356, global = -0.0111145, cumulative = 0.655933
smoothSolver:  Solving for epsilon, Initial residual = 0.015626, Final residual = 0.00148965, No Iterations 3
smoothSolver:  Solving for k, Initial residual = 0.0267344, Final residual = 0.00214392, No Iterations 4
ExecutionTime = 0.39 s  ClockTime = 0 s

Time = 21

smoothSolver:  Solving for Ux, Initial residual = 0.0195713, Final residual = 0.00185964, No Iterations 5
smoothSolver:  Solving for Uy, Initial residual = 0.0346373, Final residual = 0.0032913, No Iterations 5
GAMG:  Solving for p, Initial residual = 0.0323819, Final residual = 0.00270395, No Iterations 4
time step continuity errors : sum local = 0.250689, global = 0.0308437, cumulative = 0.686777
smoothSolver:  Solving for epsilon, Initial residual = 0.0148603, Final residual = 0.00140414, No Iterations 3
smoothSolver:  Solving for k, Initial residual = 0.0255413, Final residual = 0.00204505, No Iterations 4
ExecutionTime = 0.41 s  ClockTime = 0 s

Time = 22

smoothSolver:  Solving for Ux, Initial residual = 0.0184214, Final residual = 0.00174946, No Iterations 5
smoothSolver:  Solving for Uy, Initial residual = 0.0334, Final residual = 0.00319796, No Iterations 5
GAMG:  Solving for p, Initial residual = 0.0306746, Final residual = 0.00250095, No Iterations 4
time step continuity errors : sum local = 0.225015, global = 0.0324037, cumulative = 0.719181
smoothSolver:  Solving for epsilon, Initial residual = 0.0141854, Final residual = 0.00133019, No Iterations 3
smoothSolver:  Solving for k, Initial residual = 0.0243494, Final residual = 0.00193557, No Iterations 4
ExecutionTime = 0.43 s  ClockTime = 0 s

Time = 23

smoothSolver:  Solving for Ux, Initial residual = 0.0173909, Final residual = 0.00165244, No Iterations 5
smoothSolver:  Solving for Uy, Initial residual = 0.0321921, Final residual = 0.00311537, No Iterations 5
GAMG:  Solving for p, Initial residual = 0.0294385, Final residual = 0.00250645, No Iterations 4
time step continuity errors : sum local = 0.220648, global = 0.0326355, cumulative = 0.751816
smoothSolver:  Solving for epsilon, Initial residual = 0.0135372, Final residual = 0.00124869, No Iterations 3
smoothSolver:  Solving for k, Initial residual = 0.0231913, Final residual = 0.0018388, No Iterations 4
ExecutionTime = 0.44 s  ClockTime = 0 s

Time = 24

smoothSolver:  Solving for Ux, Initial residual = 0.0164167, Final residual = 0.00155839, No Iterations 5
smoothSolver:  Solving for Uy, Initial residual = 0.0309929, Final residual = 0.00302158, No Iterations 5
GAMG:  Solving for p, Initial residual = 0.0286112, Final residual = 0.00234698, No Iterations 4
time step continuity errors : sum local = 0.20143, global = 0.0283406, cumulative = 0.780157
smoothSolver:  Solving for epsilon, Initial residual = 0.013018, Final residual = 0.00119053, No Iterations 3
smoothSolver:  Solving for k, Initial residual = 0.0221614, Final residual = 0.00174544, No Iterations 4
ExecutionTime = 0.46 s  ClockTime = 0 s

Time = 25

smoothSolver:  Solving for Ux, Initial residual = 0.0154889, Final residual = 0.00147018, No Iterations 5
smoothSolver:  Solving for Uy, Initial residual = 0.0298319, Final residual = 0.00292508, No Iterations 5
GAMG:  Solving for p, Initial residual = 0.0278186, Final residual = 0.00252335, No Iterations 4
time step continuity errors : sum local = 0.211593, global = 0.0291018, cumulative = 0.809259
smoothSolver:  Solving for epsilon, Initial residual = 0.0124573, Final residual = 0.00112427, No Iterations 3
smoothSolver:  Solving for k, Initial residual = 0.0212227, Final residual = 0.00165877, No Iterations 4
ExecutionTime = 0.48 s  ClockTime = 0 s

Time = 26

smoothSolver:  Solving for Ux, Initial residual = 0.014585, Final residual = 0.00138462, No Iterations 5
smoothSolver:  Solving for Uy, Initial residual = 0.0286752, Final residual = 0.00282295, No Iterations 5
GAMG:  Solving for p, Initial residual = 0.0269476, Final residual = 0.00261037, No Iterations 4
time step continuity errors : sum local = 0.213835, global = 0.0291307, cumulative = 0.838389
smoothSolver:  Solving for epsilon, Initial residual = 0.0119444, Final residual = 0.00107207, No Iterations 3
smoothSolver:  Solving for k, Initial residual = 0.020309, Final residual = 0.00158025, No Iterations 4
ExecutionTime = 0.49 s  ClockTime = 0 s

Time = 27

smoothSolver:  Solving for Ux, Initial residual = 0.0137021, Final residual = 0.00130126, No Iterations 5
smoothSolver:  Solving for Uy, Initial residual = 0.0275681, Final residual = 0.00272171, No Iterations 5
GAMG:  Solving for p, Initial residual = 0.0262001, Final residual = 0.00225027, No Iterations 5
time step continuity errors : sum local = 0.17972, global = -0.0299981, cumulative = 0.808391
smoothSolver:  Solving for epsilon, Initial residual = 0.011465, Final residual = 0.00102287, No Iterations 3
smoothSolver:  Solving for k, Initial residual = 0.0195498, Final residual = 0.00151742, No Iterations 4
ExecutionTime = 0.51 s  ClockTime = 0 s

Time = 28

smoothSolver:  Solving for Ux, Initial residual = 0.0128376, Final residual = 0.00121989, No Iterations 5
smoothSolver:  Solving for Uy, Initial residual = 0.0264469, Final residual = 0.00261966, No Iterations 5
GAMG:  Solving for p, Initial residual = 0.0255404, Final residual = 0.00222962, No Iterations 4
time step continuity errors : sum local = 0.172589, global = 0.0250537, cumulative = 0.833445
smoothSolver:  Solving for epsilon, Initial residual = 0.0110058, Final residual = 0.000982283, No Iterations 3
smoothSolver:  Solving for k, Initial residual = 0.018876, Final residual = 0.00146136, No Iterations 4
ExecutionTime = 0.52 s  ClockTime = 0 s

Time = 29

smoothSolver:  Solving for Ux, Initial residual = 0.012024, Final residual = 0.00114394, No Iterations 5
smoothSolver:  Solving for Uy, Initial residual = 0.025428, Final residual = 0.0025234, No Iterations 5
GAMG:  Solving for p, Initial residual = 0.0248737, Final residual = 0.00230323, No Iterations 4
time step continuity errors : sum local = 0.174557, global = 0.0261959, cumulative = 0.859641
smoothSolver:  Solving for epsilon, Initial residual = 0.0105153, Final residual = 0.000933773, No Iterations 3
smoothSolver:  Solving for k, Initial residual = 0.0181521, Final residual = 0.00139801, No Iterations 4
ExecutionTime = 0.55 s  ClockTime = 0 s

Time = 30

smoothSolver:  Solving for Ux, Initial residual = 0.0112924, Final residual = 0.00107754, No Iterations 5
smoothSolver:  Solving for Uy, Initial residual = 0.0244284, Final residual = 0.00243387, No Iterations 5
GAMG:  Solving for p, Initial residual = 0.0242152, Final residual = 0.00196044, No Iterations 5
time step continuity errors : sum local = 0.146038, global = -0.0216583, cumulative = 0.837983
smoothSolver:  Solving for epsilon, Initial residual = 0.0101183, Final residual = 0.000899092, No Iterations 3
smoothSolver:  Solving for k, Initial residual = 0.0175516, Final residual = 0.00135074, No Iterations 4
ExecutionTime = 0.56 s  ClockTime = 0 s

Time = 31

smoothSolver:  Solving for Ux, Initial residual = 0.010579, Final residual = 0.00101127, No Iterations 5
smoothSolver:  Solving for Uy, Initial residual = 0.0234705, Final residual = 0.00234084, No Iterations 5
GAMG:  Solving for p, Initial residual = 0.0233605, Final residual = 0.00212806, No Iterations 4
time step continuity errors : sum local = 0.154491, global = 0.0185619, cumulative = 0.856545
smoothSolver:  Solving for epsilon, Initial residual = 0.00973077, Final residual = 0.000862848, No Iterations 3
smoothSolver:  Solving for k, Initial residual = 0.0169035, Final residual = 0.00129489, No Iterations 4
ExecutionTime = 0.58 s  ClockTime = 0 s

Time = 32

smoothSolver:  Solving for Ux, Initial residual = 0.00989415, Final residual = 0.000948007, No Iterations 5
smoothSolver:  Solving for Uy, Initial residual = 0.0226215, Final residual = 0.00145632, No Iterations 6
GAMG:  Solving for p, Initial residual = 0.0229128, Final residual = 0.00182418, No Iterations 5
time step continuity errors : sum local = 0.129469, global = -0.0185021, cumulative = 0.838042
smoothSolver:  Solving for epsilon, Initial residual = 0.00937827, Final residual = 0.00083256, No Iterations 3
smoothSolver:  Solving for k, Initial residual = 0.0163592, Final residual = 0.00124668, No Iterations 4
ExecutionTime = 0.6 s  ClockTime = 1 s

Time = 33

smoothSolver:  Solving for Ux, Initial residual = 0.00929154, Final residual = 0.000893888, No Iterations 5
smoothSolver:  Solving for Uy, Initial residual = 0.0215954, Final residual = 0.00139473, No Iterations 6
GAMG:  Solving for p, Initial residual = 0.022333, Final residual = 0.00181624, No Iterations 4
time step continuity errors : sum local = 0.125742, global = 0.0177812, cumulative = 0.855824
smoothSolver:  Solving for epsilon, Initial residual = 0.00902329, Final residual = 0.000803476, No Iterations 3
smoothSolver:  Solving for k, Initial residual = 0.0158759, Final residual = 0.00121077, No Iterations 4
ExecutionTime = 0.62 s  ClockTime = 1 s

Time = 34

smoothSolver:  Solving for Ux, Initial residual = 0.00870461, Final residual = 0.000839807, No Iterations 5
smoothSolver:  Solving for Uy, Initial residual = 0.0207808, Final residual = 0.0013485, No Iterations 6
GAMG:  Solving for p, Initial residual = 0.0218564, Final residual = 0.00181972, No Iterations 4
time step continuity errors : sum local = 0.123143, global = 0.0162818, cumulative = 0.872105
smoothSolver:  Solving for epsilon, Initial residual = 0.00872459, Final residual = 0.000784291, No Iterations 3
smoothSolver:  Solving for k, Initial residual = 0.0152923, Final residual = 0.00116267, No Iterations 4
ExecutionTime = 0.64 s  ClockTime = 1 s

Time = 35

smoothSolver:  Solving for Ux, Initial residual = 0.00817449, Final residual = 0.000792448, No Iterations 5
smoothSolver:  Solving for Uy, Initial residual = 0.0201222, Final residual = 0.0013141, No Iterations 6
GAMG:  Solving for p, Initial residual = 0.0212498, Final residual = 0.00212295, No Iterations 4
time step continuity errors : sum local = 0.141288, global = 0.0211285, cumulative = 0.893234
smoothSolver:  Solving for epsilon, Initial residual = 0.00836448, Final residual = 0.000748888, No Iterations 3
smoothSolver:  Solving for k, Initial residual = 0.0147888, Final residual = 0.00112322, No Iterations 4
ExecutionTime = 0.65 s  ClockTime = 1 s

Time = 36

smoothSolver:  Solving for Ux, Initial residual = 0.00766202, Final residual = 0.000745809, No Iterations 5
smoothSolver:  Solving for Uy, Initial residual = 0.0195046, Final residual = 0.00128229, No Iterations 6
GAMG:  Solving for p, Initial residual = 0.020764, Final residual = 0.00206316, No Iterations 4
time step continuity errors : sum local = 0.134278, global = 0.0204865, cumulative = 0.91372
smoothSolver:  Solving for epsilon, Initial residual = 0.00807256, Final residual = 0.000729951, No Iterations 3
smoothSolver:  Solving for k, Initial residual = 0.0143627, Final residual = 0.00109016, No Iterations 4
ExecutionTime = 0.68 s  ClockTime = 1 s

Time = 37

smoothSolver:  Solving for Ux, Initial residual = 0.00719441, Final residual = 0.00070358, No Iterations 5
smoothSolver:  Solving for Uy, Initial residual = 0.019025, Final residual = 0.00125959, No Iterations 6
GAMG:  Solving for p, Initial residual = 0.0203003, Final residual = 0.00198839, No Iterations 4
time step continuity errors : sum local = 0.126742, global = 0.0191202, cumulative = 0.932841
smoothSolver:  Solving for epsilon, Initial residual = 0.00776858, Final residual = 0.000703978, No Iterations 3
smoothSolver:  Solving for k, Initial residual = 0.0138867, Final residual = 0.00104849, No Iterations 4
ExecutionTime = 0.69 s  ClockTime = 1 s

Time = 38

smoothSolver:  Solving for Ux, Initial residual = 0.00677, Final residual = 0.000665219, No Iterations 5
smoothSolver:  Solving for Uy, Initial residual = 0.0186091, Final residual = 0.00124211, No Iterations 6
GAMG:  Solving for p, Initial residual = 0.0197744, Final residual = 0.00189562, No Iterations 4
time step continuity errors : sum local = 0.118432, global = 0.017434, cumulative = 0.950275
smoothSolver:  Solving for epsilon, Initial residual = 0.00748556, Final residual = 0.000681649, No Iterations 3
smoothSolver:  Solving for k, Initial residual = 0.0134471, Final residual = 0.00101595, No Iterations 4
ExecutionTime = 0.71 s  ClockTime = 1 s

Time = 39

smoothSolver:  Solving for Ux, Initial residual = 0.00638534, Final residual = 0.000630602, No Iterations 5
smoothSolver:  Solving for Uy, Initial residual = 0.0182737, Final residual = 0.00122995, No Iterations 6
GAMG:  Solving for p, Initial residual = 0.0193021, Final residual = 0.00182762, No Iterations 4
time step continuity errors : sum local = 0.112077, global = 0.0161265, cumulative = 0.966401
smoothSolver:  Solving for epsilon, Initial residual = 0.00721451, Final residual = 0.000660918, No Iterations 3
smoothSolver:  Solving for k, Initial residual = 0.0130302, Final residual = 0.000979926, No Iterations 4
ExecutionTime = 0.72 s  ClockTime = 1 s

Time = 40

smoothSolver:  Solving for Ux, Initial residual = 0.00604003, Final residual = 0.000599664, No Iterations 5
smoothSolver:  Solving for Uy, Initial residual = 0.0180024, Final residual = 0.00122144, No Iterations 6
GAMG:  Solving for p, Initial residual = 0.0189126, Final residual = 0.00175913, No Iterations 4
time step continuity errors : sum local = 0.106075, global = 0.0145381, cumulative = 0.980939
smoothSolver:  Solving for epsilon, Initial residual = 0.00699594, Final residual = 0.000637299, No Iterations 3
smoothSolver:  Solving for k, Initial residual = 0.0125795, Final residual = 0.000946959, No Iterations 4
ExecutionTime = 0.75 s  ClockTime = 1 s

Time = 41

smoothSolver:  Solving for Ux, Initial residual = 0.00572739, Final residual = 0.00057165, No Iterations 5
smoothSolver:  Solving for Uy, Initial residual = 0.0177957, Final residual = 0.00121583, No Iterations 6
GAMG:  Solving for p, Initial residual = 0.0184999, Final residual = 0.00169787, No Iterations 4
time step continuity errors : sum local = 0.100718, global = 0.0137532, cumulative = 0.994692
smoothSolver:  Solving for epsilon, Initial residual = 0.00674541, Final residual = 0.000615833, No Iterations 3
smoothSolver:  Solving for k, Initial residual = 0.0121901, Final residual = 0.000914162, No Iterations 4
ExecutionTime = 0.76 s  ClockTime = 1 s

Time = 42

smoothSolver:  Solving for Ux, Initial residual = 0.00545026, Final residual = 0.000350749, No Iterations 6
smoothSolver:  Solving for Uy, Initial residual = 0.0176524, Final residual = 0.00121471, No Iterations 6
GAMG:  Solving for p, Initial residual = 0.0184694, Final residual = 0.00163208, No Iterations 4
time step continuity errors : sum local = 0.0954059, global = 0.012887, cumulative = 1.00758
smoothSolver:  Solving for epsilon, Initial residual = 0.0065293, Final residual = 0.000599397, No Iterations 3
smoothSolver:  Solving for k, Initial residual = 0.0117733, Final residual = 0.000883759, No Iterations 4
ExecutionTime = 0.78 s  ClockTime = 1 s

Time = 43

smoothSolver:  Solving for Ux, Initial residual = 0.00517672, Final residual = 0.000335156, No Iterations 6
smoothSolver:  Solving for Uy, Initial residual = 0.0177224, Final residual = 0.00122773, No Iterations 6
GAMG:  Solving for p, Initial residual = 0.0179182, Final residual = 0.00153793, No Iterations 4
time step continuity errors : sum local = 0.0886838, global = 0.0116039, cumulative = 1.01918
smoothSolver:  Solving for epsilon, Initial residual = 0.00630421, Final residual = 0.000572941, No Iterations 3
smoothSolver:  Solving for k, Initial residual = 0.0114184, Final residual = 0.000855813, No Iterations 4
ExecutionTime = 0.8 s  ClockTime = 1 s

Time = 44

smoothSolver:  Solving for Ux, Initial residual = 0.00495222, Final residual = 0.000322776, No Iterations 6
smoothSolver:  Solving for Uy, Initial residual = 0.0177535, Final residual = 0.00123768, No Iterations 6
GAMG:  Solving for p, Initial residual = 0.0175566, Final residual = 0.00144422, No Iterations 4
time step continuity errors : sum local = 0.082165, global = 0.0100935, cumulative = 1.02928
smoothSolver:  Solving for epsilon, Initial residual = 0.00609848, Final residual = 0.000553176, No Iterations 3
smoothSolver:  Solving for k, Initial residual = 0.0110207, Final residual = 0.000825863, No Iterations 4
ExecutionTime = 0.81 s  ClockTime = 1 s

Time = 45

smoothSolver:  Solving for Ux, Initial residual = 0.00476302, Final residual = 0.000312411, No Iterations 6
smoothSolver:  Solving for Uy, Initial residual = 0.0177789, Final residual = 0.00124656, No Iterations 6
GAMG:  Solving for p, Initial residual = 0.0172501, Final residual = 0.00147808, No Iterations 4
time step continuity errors : sum local = 0.0830933, global = 0.00672657, cumulative = 1.036
smoothSolver:  Solving for epsilon, Initial residual = 0.0059059, Final residual = 0.000535605, No Iterations 3
smoothSolver:  Solving for k, Initial residual = 0.0107205, Final residual = 0.00080498, No Iterations 4
ExecutionTime = 0.83 s  ClockTime = 1 s

Time = 46

smoothSolver:  Solving for Ux, Initial residual = 0.00459867, Final residual = 0.000303416, No Iterations 6
smoothSolver:  Solving for Uy, Initial residual = 0.0178346, Final residual = 0.00125677, No Iterations 6
GAMG:  Solving for p, Initial residual = 0.0170205, Final residual = 0.00160131, No Iterations 3
time step continuity errors : sum local = 0.0887949, global = 0.00235399, cumulative = 1.03836
smoothSolver:  Solving for epsilon, Initial residual = 0.00572085, Final residual = 0.000515483, No Iterations 3
smoothSolver:  Solving for k, Initial residual = 0.0103278, Final residual = 0.000774103, No Iterations 4
ExecutionTime = 0.84 s  ClockTime = 1 s

Time = 47

smoothSolver:  Solving for Ux, Initial residual = 0.0044673, Final residual = 0.00029584, No Iterations 6
smoothSolver:  Solving for Uy, Initial residual = 0.0177769, Final residual = 0.00125985, No Iterations 6
GAMG:  Solving for p, Initial residual = 0.0171298, Final residual = 0.00136785, No Iterations 4
time step continuity errors : sum local = 0.0754267, global = -0.00945206, cumulative = 1.02891
smoothSolver:  Solving for epsilon, Initial residual = 0.00556685, Final residual = 0.000499822, No Iterations 3
smoothSolver:  Solving for k, Initial residual = 0.00999832, Final residual = 0.00075041, No Iterations 4
ExecutionTime = 0.86 s  ClockTime = 1 s

Time = 48

smoothSolver:  Solving for Ux, Initial residual = 0.00434834, Final residual = 0.000288758, No Iterations 6
smoothSolver:  Solving for Uy, Initial residual = 0.0178873, Final residual = 0.00127161, No Iterations 6
GAMG:  Solving for p, Initial residual = 0.0166292, Final residual = 0.00165268, No Iterations 3
time step continuity errors : sum local = 0.0899687, global = 0.015167, cumulative = 1.04407
smoothSolver:  Solving for epsilon, Initial residual = 0.0054127, Final residual = 0.000477934, No Iterations 3
smoothSolver:  Solving for k, Initial residual = 0.00967966, Final residual = 0.000725157, No Iterations 4
ExecutionTime = 0.88 s  ClockTime = 1 s

Time = 49

smoothSolver:  Solving for Ux, Initial residual = 0.00424718, Final residual = 0.000282937, No Iterations 6
smoothSolver:  Solving for Uy, Initial residual = 0.0178912, Final residual = 0.00127692, No Iterations 6
GAMG:  Solving for p, Initial residual = 0.0167896, Final residual = 0.00152025, No Iterations 4
time step continuity errors : sum local = 0.0825271, global = 0.00295892, cumulative = 1.04703
smoothSolver:  Solving for epsilon, Initial residual = 0.00524359, Final residual = 0.00045999, No Iterations 3
smoothSolver:  Solving for k, Initial residual = 0.00937763, Final residual = 0.000698051, No Iterations 4
ExecutionTime = 0.89 s  ClockTime = 1 s

Time = 50

smoothSolver:  Solving for Ux, Initial residual = 0.00415516, Final residual = 0.000277808, No Iterations 6
smoothSolver:  Solving for Uy, Initial residual = 0.0180846, Final residual = 0.00129422, No Iterations 6
GAMG:  Solving for p, Initial residual = 0.0162892, Final residual = 0.00141808, No Iterations 3
time step continuity errors : sum local = 0.0757698, global = 0.00738283, cumulative = 1.05441
smoothSolver:  Solving for epsilon, Initial residual = 0.00510775, Final residual = 0.0004429, No Iterations 3
smoothSolver:  Solving for k, Initial residual = 0.00904796, Final residual = 0.000677466, No Iterations 4
ExecutionTime = 0.91 s  ClockTime = 1 s

Time = 51

smoothSolver:  Solving for Ux, Initial residual = 0.00408093, Final residual = 0.000273152, No Iterations 6
smoothSolver:  Solving for Uy, Initial residual = 0.0179837, Final residual = 0.00129154, No Iterations 6
GAMG:  Solving for p, Initial residual = 0.0163929, Final residual = 0.00152235, No Iterations 3
time step continuity errors : sum local = 0.081187, global = 0.0108288, cumulative = 1.06524
smoothSolver:  Solving for epsilon, Initial residual = 0.0049681, Final residual = 0.000424074, No Iterations 3
smoothSolver:  Solving for k, Initial residual = 0.00883245, Final residual = 0.000659564, No Iterations 4
ExecutionTime = 0.93 s  ClockTime = 1 s

Time = 52

smoothSolver:  Solving for Ux, Initial residual = 0.00401642, Final residual = 0.000268428, No Iterations 6
smoothSolver:  Solving for Uy, Initial residual = 0.0180294, Final residual = 0.00129698, No Iterations 6
GAMG:  Solving for p, Initial residual = 0.0158406, Final residual = 0.00119856, No Iterations 4
time step continuity errors : sum local = 0.0637141, global = -0.00809108, cumulative = 1.05715
smoothSolver:  Solving for epsilon, Initial residual = 0.00485773, Final residual = 0.000411105, No Iterations 3
smoothSolver:  Solving for k, Initial residual = 0.00852556, Final residual = 0.000637456, No Iterations 4
ExecutionTime = 0.94 s  ClockTime = 1 s

Time = 53

smoothSolver:  Solving for Ux, Initial residual = 0.00395931, Final residual = 0.000264876, No Iterations 6
smoothSolver:  Solving for Uy, Initial residual = 0.0181419, Final residual = 0.00130831, No Iterations 6
GAMG:  Solving for p, Initial residual = 0.0155986, Final residual = 0.00122444, No Iterations 4
time step continuity errors : sum local = 0.064387, global = -0.0107874, cumulative = 1.04636
smoothSolver:  Solving for epsilon, Initial residual = 0.0047534, Final residual = 0.000396941, No Iterations 3
smoothSolver:  Solving for k, Initial residual = 0.00824646, Final residual = 0.000610803, No Iterations 4
ExecutionTime = 0.96 s  ClockTime = 1 s

Time = 54

smoothSolver:  Solving for Ux, Initial residual = 0.00390896, Final residual = 0.000261668, No Iterations 6
smoothSolver:  Solving for Uy, Initial residual = 0.0181259, Final residual = 0.00130979, No Iterations 6
GAMG:  Solving for p, Initial residual = 0.0155998, Final residual = 0.00130447, No Iterations 4
time step continuity errors : sum local = 0.0681225, global = -0.0126604, cumulative = 1.0337
smoothSolver:  Solving for epsilon, Initial residual = 0.00461173, Final residual = 0.00038204, No Iterations 3
smoothSolver:  Solving for k, Initial residual = 0.00801358, Final residual = 0.00059583, No Iterations 4
ExecutionTime = 0.98 s  ClockTime = 1 s

Time = 55

smoothSolver:  Solving for Ux, Initial residual = 0.00386049, Final residual = 0.000258023, No Iterations 6
smoothSolver:  Solving for Uy, Initial residual = 0.0181326, Final residual = 0.0013129, No Iterations 6
GAMG:  Solving for p, Initial residual = 0.0154183, Final residual = 0.0013259, No Iterations 4
time step continuity errors : sum local = 0.0688282, global = -0.0135073, cumulative = 1.0202
smoothSolver:  Solving for epsilon, Initial residual = 0.00452585, Final residual = 0.000370584, No Iterations 3
smoothSolver:  Solving for k, Initial residual = 0.00778592, Final residual = 0.000575379, No Iterations 4
ExecutionTime = 0.99 s  ClockTime = 1 s

Time = 56

smoothSolver:  Solving for Ux, Initial residual = 0.00381358, Final residual = 0.000254496, No Iterations 6
smoothSolver:  Solving for Uy, Initial residual = 0.0181829, Final residual = 0.00131842, No Iterations 6
GAMG:  Solving for p, Initial residual = 0.0152675, Final residual = 0.00134864, No Iterations 4
time step continuity errors : sum local = 0.0696443, global = -0.014, cumulative = 1.0062
smoothSolver:  Solving for epsilon, Initial residual = 0.00445549, Final residual = 0.000360779, No Iterations 3
smoothSolver:  Solving for k, Initial residual = 0.00755466, Final residual = 0.000555188, No Iterations 4
ExecutionTime = 1.01 s  ClockTime = 1 s

Time = 57

smoothSolver:  Solving for Ux, Initial residual = 0.00376901, Final residual = 0.000251219, No Iterations 6
smoothSolver:  Solving for Uy, Initial residual = 0.0182408, Final residual = 0.00132492, No Iterations 6
GAMG:  Solving for p, Initial residual = 0.015142, Final residual = 0.00136922, No Iterations 4
time step continuity errors : sum local = 0.0703946, global = -0.0143938, cumulative = 0.991803
smoothSolver:  Solving for epsilon, Initial residual = 0.00434891, Final residual = 0.000346289, No Iterations 3
smoothSolver:  Solving for k, Initial residual = 0.00738575, Final residual = 0.000541032, No Iterations 4
ExecutionTime = 1.02 s  ClockTime = 1 s

Time = 58

smoothSolver:  Solving for Ux, Initial residual = 0.00373005, Final residual = 0.000248362, No Iterations 6
smoothSolver:  Solving for Uy, Initial residual = 0.0182967, Final residual = 0.0013315, No Iterations 6
GAMG:  Solving for p, Initial residual = 0.0150869, Final residual = 0.00139581, No Iterations 4
time step continuity errors : sum local = 0.0714565, global = -0.0148151, cumulative = 0.976988
smoothSolver:  Solving for epsilon, Initial residual = 0.00428418, Final residual = 0.000336596, No Iterations 3
smoothSolver:  Solving for k, Initial residual = 0.00712286, Final residual = 0.00052074, No Iterations 4
ExecutionTime = 1.04 s  ClockTime = 1 s

Time = 59

smoothSolver:  Solving for Ux, Initial residual = 0.00369633, Final residual = 0.000245774, No Iterations 6
smoothSolver:  Solving for Uy, Initial residual = 0.0183642, Final residual = 0.00133877, No Iterations 6
GAMG:  Solving for p, Initial residual = 0.0149644, Final residual = 0.00142108, No Iterations 4
time step continuity errors : sum local = 0.0724606, global = -0.0152191, cumulative = 0.961769
smoothSolver:  Solving for epsilon, Initial residual = 0.00420732, Final residual = 0.000330163, No Iterations 3
smoothSolver:  Solving for k, Initial residual = 0.0069923, Final residual = 0.00051194, No Iterations 4
ExecutionTime = 1.05 s  ClockTime = 1 s

Time = 60

smoothSolver:  Solving for Ux, Initial residual = 0.00366553, Final residual = 0.000243404, No Iterations 6
smoothSolver:  Solving for Uy, Initial residual = 0.0184338, Final residual = 0.00134651, No Iterations 6
GAMG:  Solving for p, Initial residual = 0.015015, Final residual = 0.00144743, No Iterations 4
time step continuity errors : sum local = 0.0734858, global = -0.0155947, cumulative = 0.946174
smoothSolver:  Solving for epsilon, Initial residual = 0.00416723, Final residual = 0.00032418, No Iterations 3
smoothSolver:  Solving for k, Initial residual = 0.00682233, Final residual = 0.000498005, No Iterations 4
ExecutionTime = 1.07 s  ClockTime = 1 s

Time = 61

smoothSolver:  Solving for Ux, Initial residual = 0.00363618, Final residual = 0.000241281, No Iterations 6
smoothSolver:  Solving for Uy, Initial residual = 0.0185152, Final residual = 0.00135523, No Iterations 6
GAMG:  Solving for p, Initial residual = 0.0148944, Final residual = 0.00147069, No Iterations 4
time step continuity errors : sum local = 0.0744253, global = -0.0158746, cumulative = 0.930299
smoothSolver:  Solving for epsilon, Initial residual = 0.00411972, Final residual = 0.000320209, No Iterations 3
smoothSolver:  Solving for k, Initial residual = 0.00663999, Final residual = 0.00048356, No Iterations 4
ExecutionTime = 1.09 s  ClockTime = 1 s

Time = 62

smoothSolver:  Solving for Ux, Initial residual = 0.00360944, Final residual = 0.00023935, No Iterations 6
smoothSolver:  Solving for Uy, Initial residual = 0.0186097, Final residual = 0.00136415, No Iterations 6
GAMG:  Solving for p, Initial residual = 0.0147694, Final residual = 0.0011032, No Iterations 5
time step continuity errors : sum local = 0.0556546, global = 0.0108567, cumulative = 0.941156
smoothSolver:  Solving for epsilon, Initial residual = 0.00406323, Final residual = 0.00031315, No Iterations 3
smoothSolver:  Solving for k, Initial residual = 0.00654553, Final residual = 0.000477411, No Iterations 4
ExecutionTime = 1.1 s  ClockTime = 1 s

Time = 63

smoothSolver:  Solving for Ux, Initial residual = 0.00358132, Final residual = 0.000237273, No Iterations 6
smoothSolver:  Solving for Uy, Initial residual = 0.0187591, Final residual = 0.00137614, No Iterations 6
GAMG:  Solving for p, Initial residual = 0.0143228, Final residual = 0.00142508, No Iterations 3
time step continuity errors : sum local = 0.0717887, global = 0.0149335, cumulative = 0.95609
smoothSolver:  Solving for epsilon, Initial residual = 0.00402465, Final residual = 0.000310962, No Iterations 3
smoothSolver:  Solving for k, Initial residual = 0.00639904, Final residual = 0.000467996, No Iterations 4
ExecutionTime = 1.12 s  ClockTime = 1 s

Time = 64

smoothSolver:  Solving for Ux, Initial residual = 0.00356878, Final residual = 0.000236494, No Iterations 6
smoothSolver:  Solving for Uy, Initial residual = 0.018816, Final residual = 0.00138269, No Iterations 6
GAMG:  Solving for p, Initial residual = 0.0146006, Final residual = 0.000749253, No Iterations 4
time step continuity errors : sum local = 0.0377395, global = -0.00505663, cumulative = 0.951033
smoothSolver:  Solving for epsilon, Initial residual = 0.00398065, Final residual = 0.000308012, No Iterations 3
smoothSolver:  Solving for k, Initial residual = 0.006296, Final residual = 0.000459475, No Iterations 4
ExecutionTime = 1.13 s  ClockTime = 1 s

Time = 65

smoothSolver:  Solving for Ux, Initial residual = 0.00353792, Final residual = 0.000234359, No Iterations 6
smoothSolver:  Solving for Uy, Initial residual = 0.0190027, Final residual = 0.00139719, No Iterations 6
GAMG:  Solving for p, Initial residual = 0.0138973, Final residual = 0.00134732, No Iterations 3
time step continuity errors : sum local = 0.0674635, global = 0.0127945, cumulative = 0.963828
smoothSolver:  Solving for epsilon, Initial residual = 0.00395655, Final residual = 0.000306536, No Iterations 3
smoothSolver:  Solving for k, Initial residual = 0.0061534, Final residual = 0.000451711, No Iterations 4
ExecutionTime = 1.15 s  ClockTime = 1 s

Time = 66

smoothSolver:  Solving for Ux, Initial residual = 0.00354163, Final residual = 0.000235163, No Iterations 6
smoothSolver:  Solving for Uy, Initial residual = 0.0190445, Final residual = 0.00140212, No Iterations 6
GAMG:  Solving for p, Initial residual = 0.0144591, Final residual = 0.000852465, No Iterations 4
time step continuity errors : sum local = 0.0426987, global = -0.00540919, cumulative = 0.958418
smoothSolver:  Solving for epsilon, Initial residual = 0.00391085, Final residual = 0.000302903, No Iterations 3
smoothSolver:  Solving for k, Initial residual = 0.0060401, Final residual = 0.000442246, No Iterations 4
ExecutionTime = 1.17 s  ClockTime = 1 s

Time = 67

smoothSolver:  Solving for Ux, Initial residual = 0.0035223, Final residual = 0.000233215, No Iterations 6
smoothSolver:  Solving for Uy, Initial residual = 0.019207, Final residual = 0.00141304, No Iterations 6
GAMG:  Solving for p, Initial residual = 0.0136951, Final residual = 0.00136163, No Iterations 3
time step continuity errors : sum local = 0.0679989, global = 0.0126648, cumulative = 0.971083
smoothSolver:  Solving for epsilon, Initial residual = 0.00387568, Final residual = 0.000301435, No Iterations 3
smoothSolver:  Solving for k, Initial residual = 0.0059566, Final residual = 0.000437357, No Iterations 4
ExecutionTime = 1.19 s  ClockTime = 1 s

Time = 68

smoothSolver:  Solving for Ux, Initial residual = 0.00353028, Final residual = 0.00023428, No Iterations 6
smoothSolver:  Solving for Uy, Initial residual = 0.019292, Final residual = 0.00142132, No Iterations 6
GAMG:  Solving for p, Initial residual = 0.0142627, Final residual = 0.000914003, No Iterations 4
time step continuity errors : sum local = 0.0456768, global = 0.00408991, cumulative = 0.975173
smoothSolver:  Solving for epsilon, Initial residual = 0.00385751, Final residual = 0.000300648, No Iterations 3
smoothSolver:  Solving for k, Initial residual = 0.00588283, Final residual = 0.000433884, No Iterations 4
ExecutionTime = 1.2 s  ClockTime = 1 s

Time = 69

smoothSolver:  Solving for Ux, Initial residual = 0.00351273, Final residual = 0.00023287, No Iterations 6
smoothSolver:  Solving for Uy, Initial residual = 0.0194355, Final residual = 0.00143136, No Iterations 6
GAMG:  Solving for p, Initial residual = 0.0136587, Final residual = 0.000784993, No Iterations 4
time step continuity errors : sum local = 0.0391709, global = -0.00519885, cumulative = 0.969974
smoothSolver:  Solving for epsilon, Initial residual = 0.00383434, Final residual = 0.000299493, No Iterations 3
smoothSolver:  Solving for k, Initial residual = 0.00582612, Final residual = 0.000431112, No Iterations 4
ExecutionTime = 1.22 s  ClockTime = 1 s

Time = 70

smoothSolver:  Solving for Ux, Initial residual = 0.00351655, Final residual = 0.000233454, No Iterations 6
smoothSolver:  Solving for Uy, Initial residual = 0.0195792, Final residual = 0.0014432, No Iterations 6
GAMG:  Solving for p, Initial residual = 0.0135861, Final residual = 0.00110417, No Iterations 4
time step continuity errors : sum local = 0.0550725, global = -0.0129633, cumulative = 0.957011
smoothSolver:  Solving for epsilon, Initial residual = 0.0038088, Final residual = 0.000297077, No Iterations 3
smoothSolver:  Solving for k, Initial residual = 0.00574185, Final residual = 0.000424914, No Iterations 4
ExecutionTime = 1.24 s  ClockTime = 1 s

Time = 71

smoothSolver:  Solving for Ux, Initial residual = 0.0035323, Final residual = 0.000234564, No Iterations 6
smoothSolver:  Solving for Uy, Initial residual = 0.0196543, Final residual = 0.0014507, No Iterations 6
GAMG:  Solving for p, Initial residual = 0.0136764, Final residual = 0.00132897, No Iterations 4
time step continuity errors : sum local = 0.0662705, global = -0.0155709, cumulative = 0.94144
smoothSolver:  Solving for epsilon, Initial residual = 0.00378732, Final residual = 0.000296344, No Iterations 3
smoothSolver:  Solving for k, Initial residual = 0.0056685, Final residual = 0.00042187, No Iterations 4
ExecutionTime = 1.25 s  ClockTime = 1 s

Time = 72

smoothSolver:  Solving for Ux, Initial residual = 0.00353608, Final residual = 0.000234631, No Iterations 6
smoothSolver:  Solving for Uy, Initial residual = 0.0197645, Final residual = 0.00145901, No Iterations 6
GAMG:  Solving for p, Initial residual = 0.0137046, Final residual = 0.00108629, No Iterations 5
time step continuity errors : sum local = 0.0541176, global = 0.010561, cumulative = 0.952001
smoothSolver:  Solving for epsilon, Initial residual = 0.00377209, Final residual = 0.000296354, No Iterations 3
smoothSolver:  Solving for k, Initial residual = 0.00563178, Final residual = 0.000421519, No Iterations 4
ExecutionTime = 1.27 s  ClockTime = 1 s

Time = 73

smoothSolver:  Solving for Ux, Initial residual = 0.0035304, Final residual = 0.000234265, No Iterations 6
smoothSolver:  Solving for Uy, Initial residual = 0.0199185, Final residual = 0.00146979, No Iterations 6
GAMG:  Solving for p, Initial residual = 0.0134217, Final residual = 0.00132759, No Iterations 3
time step continuity errors : sum local = 0.0661437, global = 0.013497, cumulative = 0.965498
smoothSolver:  Solving for epsilon, Initial residual = 0.00376882, Final residual = 0.000298013, No Iterations 3
smoothSolver:  Solving for k, Initial residual = 0.00555484, Final residual = 0.000417962, No Iterations 4
ExecutionTime = 1.29 s  ClockTime = 1 s

Time = 74

smoothSolver:  Solving for Ux, Initial residual = 0.00354248, Final residual = 0.000235161, No Iterations 6
smoothSolver:  Solving for Uy, Initial residual = 0.0200466, Final residual = 0.00148075, No Iterations 6
GAMG:  Solving for p, Initial residual = 0.0134542, Final residual = 0.000860097, No Iterations 4
time step continuity errors : sum local = 0.0428633, global = -0.00092378, cumulative = 0.964574
smoothSolver:  Solving for epsilon, Initial residual = 0.00375065, Final residual = 0.000297965, No Iterations 3
smoothSolver:  Solving for k, Initial residual = 0.00555765, Final residual = 0.000420001, No Iterations 4
ExecutionTime = 1.31 s  ClockTime = 1 s

Time = 75

smoothSolver:  Solving for Ux, Initial residual = 0.00353049, Final residual = 0.000234588, No Iterations 6
smoothSolver:  Solving for Uy, Initial residual = 0.0201943, Final residual = 0.00149227, No Iterations 6
GAMG:  Solving for p, Initial residual = 0.0130362, Final residual = 0.00114382, No Iterations 3
time step continuity errors : sum local = 0.0570202, global = 0.0117928, cumulative = 0.976367
smoothSolver:  Solving for epsilon, Initial residual = 0.00373601, Final residual = 0.000299414, No Iterations 3
smoothSolver:  Solving for k, Initial residual = 0.00549859, Final residual = 0.00041851, No Iterations 4
ExecutionTime = 1.32 s  ClockTime = 1 s

Time = 76

smoothSolver:  Solving for Ux, Initial residual = 0.00356236, Final residual = 0.000236478, No Iterations 6
smoothSolver:  Solving for Uy, Initial residual = 0.0203119, Final residual = 0.00150223, No Iterations 6
GAMG:  Solving for p, Initial residual = 0.0134383, Final residual = 0.000832007, No Iterations 4
time step continuity errors : sum local = 0.041476, global = -0.00629078, cumulative = 0.970076
smoothSolver:  Solving for epsilon, Initial residual = 0.00372834, Final residual = 0.000300542, No Iterations 3
smoothSolver:  Solving for k, Initial residual = 0.00545926, Final residual = 0.000417575, No Iterations 4
ExecutionTime = 1.33 s  ClockTime = 1 s

Time = 77

smoothSolver:  Solving for Ux, Initial residual = 0.00354937, Final residual = 0.000235156, No Iterations 6
smoothSolver:  Solving for Uy, Initial residual = 0.0204613, Final residual = 0.00151263, No Iterations 6
GAMG:  Solving for p, Initial residual = 0.0128681, Final residual = 0.000947051, No Iterations 4
time step continuity errors : sum local = 0.0472792, global = -0.0103065, cumulative = 0.95977
smoothSolver:  Solving for epsilon, Initial residual = 0.00369856, Final residual = 0.000300662, No Iterations 3
smoothSolver:  Solving for k, Initial residual = 0.00541272, Final residual = 0.000416801, No Iterations 4
ExecutionTime = 1.36 s  ClockTime = 1 s

Time = 78

smoothSolver:  Solving for Ux, Initial residual = 0.00356743, Final residual = 0.000236425, No Iterations 6
smoothSolver:  Solving for Uy, Initial residual = 0.0206091, Final residual = 0.00152533, No Iterations 6
GAMG:  Solving for p, Initial residual = 0.013161, Final residual = 0.00127471, No Iterations 4
time step continuity errors : sum local = 0.0637086, global = -0.0131676, cumulative = 0.946602
smoothSolver:  Solving for epsilon, Initial residual = 0.00369588, Final residual = 0.00030241, No Iterations 3
smoothSolver:  Solving for k, Initial residual = 0.00540318, Final residual = 0.00041776, No Iterations 4
ExecutionTime = 1.37 s  ClockTime = 1 s

Time = 79

smoothSolver:  Solving for Ux, Initial residual = 0.00357066, Final residual = 0.000236297, No Iterations 6
smoothSolver:  Solving for Uy, Initial residual = 0.020732, Final residual = 0.00153505, No Iterations 6
GAMG:  Solving for p, Initial residual = 0.0132821, Final residual = 0.00103787, No Iterations 5
time step continuity errors : sum local = 0.0519693, global = 0.00929182, cumulative = 0.955894
smoothSolver:  Solving for epsilon, Initial residual = 0.00366712, Final residual = 0.000302067, No Iterations 3
smoothSolver:  Solving for k, Initial residual = 0.00538169, Final residual = 0.000419496, No Iterations 4
ExecutionTime = 1.39 s  ClockTime = 1 s

Time = 80

smoothSolver:  Solving for Ux, Initial residual = 0.00356582, Final residual = 0.000235705, No Iterations 6
smoothSolver:  Solving for Uy, Initial residual = 0.0208961, Final residual = 0.00154713, No Iterations 6
GAMG:  Solving for p, Initial residual = 0.0129667, Final residual = 0.00124908, No Iterations 3
time step continuity errors : sum local = 0.0625759, global = 0.0107493, cumulative = 0.966643
smoothSolver:  Solving for epsilon, Initial residual = 0.00365487, Final residual = 0.000304278, No Iterations 3
smoothSolver:  Solving for k, Initial residual = 0.00535528, Final residual = 0.000420009, No Iterations 4
ExecutionTime = 1.4 s  ClockTime = 1 s

Time = 81

smoothSolver:  Solving for Ux, Initial residual = 0.00357494, Final residual = 0.000236529, No Iterations 6
smoothSolver:  Solving for Uy, Initial residual = 0.0210363, Final residual = 0.00155993, No Iterations 6
GAMG:  Solving for p, Initial residual = 0.0131903, Final residual = 0.000922784, No Iterations 4
time step continuity errors : sum local = 0.0462198, global = -0.00793889, cumulative = 0.958704
smoothSolver:  Solving for epsilon, Initial residual = 0.00365147, Final residual = 0.000305857, No Iterations 3
smoothSolver:  Solving for k, Initial residual = 0.00531587, Final residual = 0.000419146, No Iterations 4
ExecutionTime = 1.43 s  ClockTime = 1 s

Time = 82

smoothSolver:  Solving for Ux, Initial residual = 0.00356116, Final residual = 0.000235362, No Iterations 6
smoothSolver:  Solving for Uy, Initial residual = 0.0212289, Final residual = 0.00157349, No Iterations 6
GAMG:  Solving for p, Initial residual = 0.0126952, Final residual = 0.0011809, No Iterations 4
time step continuity errors : sum local = 0.0594028, global = -0.0121558, cumulative = 0.946548
smoothSolver:  Solving for epsilon, Initial residual = 0.00363507, Final residual = 0.000307434, No Iterations 3
smoothSolver:  Solving for k, Initial residual = 0.00531381, Final residual = 0.000422224, No Iterations 4
ExecutionTime = 1.44 s  ClockTime = 1 s

Time = 83

smoothSolver:  Solving for Ux, Initial residual = 0.00356738, Final residual = 0.000235858, No Iterations 6
smoothSolver:  Solving for Uy, Initial residual = 0.0213724, Final residual = 0.00158591, No Iterations 6
GAMG:  Solving for p, Initial residual = 0.0129431, Final residual = 0.000960559, No Iterations 5
time step continuity errors : sum local = 0.0484475, global = 0.00867791, cumulative = 0.955226
smoothSolver:  Solving for epsilon, Initial residual = 0.00360093, Final residual = 0.000306681, No Iterations 3
smoothSolver:  Solving for k, Initial residual = 0.00523979, Final residual = 0.000419604, No Iterations 4
ExecutionTime = 1.46 s  ClockTime = 1 s

Time = 84

smoothSolver:  Solving for Ux, Initial residual = 0.00356438, Final residual = 0.000235144, No Iterations 6
smoothSolver:  Solving for Uy, Initial residual = 0.0215615, Final residual = 0.00159974, No Iterations 6
GAMG:  Solving for p, Initial residual = 0.0127475, Final residual = 0.000938788, No Iterations 4
time step continuity errors : sum local = 0.0473638, global = -0.010642, cumulative = 0.944584
smoothSolver:  Solving for epsilon, Initial residual = 0.00359678, Final residual = 0.000308846, No Iterations 3
smoothSolver:  Solving for k, Initial residual = 0.00524635, Final residual = 0.000423053, No Iterations 4
ExecutionTime = 1.47 s  ClockTime = 1 s

Time = 85

smoothSolver:  Solving for Ux, Initial residual = 0.00355964, Final residual = 0.000235, No Iterations 6
smoothSolver:  Solving for Uy, Initial residual = 0.0217348, Final residual = 0.00161411, No Iterations 6
GAMG:  Solving for p, Initial residual = 0.0127245, Final residual = 0.00124762, No Iterations 4
time step continuity errors : sum local = 0.0630391, global = -0.012999, cumulative = 0.931585
smoothSolver:  Solving for epsilon, Initial residual = 0.00357374, Final residual = 0.000309207, No Iterations 3
smoothSolver:  Solving for k, Initial residual = 0.00524555, Final residual = 0.00042612, No Iterations 4
ExecutionTime = 1.49 s  ClockTime = 1 s

Time = 86

smoothSolver:  Solving for Ux, Initial residual = 0.00355925, Final residual = 0.000235082, No Iterations 6
smoothSolver:  Solving for Uy, Initial residual = 0.0218847, Final residual = 0.00162669, No Iterations 6
GAMG:  Solving for p, Initial residual = 0.0129568, Final residual = 0.00102104, No Iterations 5
time step continuity errors : sum local = 0.0516347, global = 0.0102844, cumulative = 0.94187
smoothSolver:  Solving for epsilon, Initial residual = 0.0035589, Final residual = 0.000309684, No Iterations 3
smoothSolver:  Solving for k, Initial residual = 0.0052097, Final residual = 0.000425947, No Iterations 4
ExecutionTime = 1.51 s  ClockTime = 1 s

Time = 87

smoothSolver:  Solving for Ux, Initial residual = 0.00355184, Final residual = 0.000234108, No Iterations 6
smoothSolver:  Solving for Uy, Initial residual = 0.0220987, Final residual = 0.0016421, No Iterations 6
GAMG:  Solving for p, Initial residual = 0.012706, Final residual = 0.00106828, No Iterations 4
time step continuity errors : sum local = 0.0539737, global = -0.0129624, cumulative = 0.928907
smoothSolver:  Solving for epsilon, Initial residual = 0.00354243, Final residual = 0.000310754, No Iterations 3
smoothSolver:  Solving for k, Initial residual = 0.00518541, Final residual = 0.000427198, No Iterations 4
ExecutionTime = 1.52 s  ClockTime = 1 s

Time = 88

smoothSolver:  Solving for Ux, Initial residual = 0.0035459, Final residual = 0.000234001, No Iterations 6
smoothSolver:  Solving for Uy, Initial residual = 0.0222867, Final residual = 0.00165764, No Iterations 6
GAMG:  Solving for p, Initial residual = 0.0127038, Final residual = 0.000991669, No Iterations 5
time step continuity errors : sum local = 0.0501724, global = 0.0101004, cumulative = 0.939008
smoothSolver:  Solving for epsilon, Initial residual = 0.00351371, Final residual = 0.000310201, No Iterations 3
smoothSolver:  Solving for k, Initial residual = 0.00514251, Final residual = 0.00042668, No Iterations 4
ExecutionTime = 1.55 s  ClockTime = 1 s

Time = 89

smoothSolver:  Solving for Ux, Initial residual = 0.00354041, Final residual = 0.000233498, No Iterations 6
smoothSolver:  Solving for Uy, Initial residual = 0.0224939, Final residual = 0.00167317, No Iterations 6
GAMG:  Solving for p, Initial residual = 0.0126891, Final residual = 0.00113644, No Iterations 4
time step continuity errors : sum local = 0.0574325, global = -0.0137623, cumulative = 0.925246
smoothSolver:  Solving for epsilon, Initial residual = 0.00348263, Final residual = 0.000309842, No Iterations 3
smoothSolver:  Solving for k, Initial residual = 0.00514194, Final residual = 0.000429796, No Iterations 4
ExecutionTime = 1.56 s  ClockTime = 1 s

Time = 90

smoothSolver:  Solving for Ux, Initial residual = 0.00353477, Final residual = 0.000233213, No Iterations 6
smoothSolver:  Solving for Uy, Initial residual = 0.0226702, Final residual = 0.0016878, No Iterations 6
GAMG:  Solving for p, Initial residual = 0.0127308, Final residual = 0.00104822, No Iterations 5
time step continuity errors : sum local = 0.0530659, global = 0.0108111, cumulative = 0.936057
smoothSolver:  Solving for epsilon, Initial residual = 0.00346515, Final residual = 0.000310076, No Iterations 3
smoothSolver:  Solving for k, Initial residual = 0.00511975, Final residual = 0.000431059, No Iterations 4
ExecutionTime = 1.58 s  ClockTime = 1 s

Time = 91

smoothSolver:  Solving for Ux, Initial residual = 0.00352619, Final residual = 0.000232515, No Iterations 6
smoothSolver:  Solving for Uy, Initial residual = 0.022891, Final residual = 0.00170342, No Iterations 6
GAMG:  Solving for p, Initial residual = 0.0126537, Final residual = 0.00121369, No Iterations 4
time step continuity errors : sum local = 0.0613753, global = -0.0147395, cumulative = 0.921317
smoothSolver:  Solving for epsilon, Initial residual = 0.00343998, Final residual = 0.000309861, No Iterations 3
smoothSolver:  Solving for k, Initial residual = 0.00511797, Final residual = 0.000433223, No Iterations 4
ExecutionTime = 1.6 s  ClockTime = 1 s

Time = 92

smoothSolver:  Solving for Ux, Initial residual = 0.00351785, Final residual = 0.000232122, No Iterations 6
smoothSolver:  Solving for Uy, Initial residual = 0.0230643, Final residual = 0.00171824, No Iterations 6
GAMG:  Solving for p, Initial residual = 0.0126709, Final residual = 0.00112311, No Iterations 5
time step continuity errors : sum local = 0.0568805, global = 0.0118619, cumulative = 0.933179
smoothSolver:  Solving for epsilon, Initial residual = 0.00342157, Final residual = 0.000309665, No Iterations 3
smoothSolver:  Solving for k, Initial residual = 0.00509722, Final residual = 0.000434653, No Iterations 4
ExecutionTime = 1.61 s  ClockTime = 2 s

Time = 93

smoothSolver:  Solving for Ux, Initial residual = 0.00350741, Final residual = 0.000231369, No Iterations 6
smoothSolver:  Solving for Uy, Initial residual = 0.0232846, Final residual = 0.00173403, No Iterations 6
GAMG:  Solving for p, Initial residual = 0.012638, Final residual = 0.000915158, No Iterations 5
time step continuity errors : sum local = 0.0462629, global = 0.0086176, cumulative = 0.941797
smoothSolver:  Solving for epsilon, Initial residual = 0.00340269, Final residual = 0.000309418, No Iterations 3
smoothSolver:  Solving for k, Initial residual = 0.00509681, Final residual = 0.000436709, No Iterations 4
ExecutionTime = 1.63 s  ClockTime = 2 s

Time = 94

smoothSolver:  Solving for Ux, Initial residual = 0.00349541, Final residual = 0.000230565, No Iterations 6
smoothSolver:  Solving for Uy, Initial residual = 0.0234876, Final residual = 0.00175023, No Iterations 6
GAMG:  Solving for p, Initial residual = 0.0124666, Final residual = 0.00122992, No Iterations 4
time step continuity errors : sum local = 0.0621044, global = -0.0144913, cumulative = 0.927305
smoothSolver:  Solving for epsilon, Initial residual = 0.00337339, Final residual = 0.000308075, No Iterations 3
smoothSolver:  Solving for k, Initial residual = 0.0051266, Final residual = 0.000441817, No Iterations 4
ExecutionTime = 1.65 s  ClockTime = 2 s

Time = 95

smoothSolver:  Solving for Ux, Initial residual = 0.00348656, Final residual = 0.000230293, No Iterations 6
smoothSolver:  Solving for Uy, Initial residual = 0.0236697, Final residual = 0.00176554, No Iterations 6
GAMG:  Solving for p, Initial residual = 0.0126537, Final residual = 0.00119829, No Iterations 5
time step continuity errors : sum local = 0.0605831, global = 0.0121092, cumulative = 0.939415
smoothSolver:  Solving for epsilon, Initial residual = 0.00334785, Final residual = 0.000306394, No Iterations 3
smoothSolver:  Solving for k, Initial residual = 0.00505769, Final residual = 0.000438269, No Iterations 4
ExecutionTime = 1.67 s  ClockTime = 2 s

Time = 96

smoothSolver:  Solving for Ux, Initial residual = 0.00347555, Final residual = 0.000229436, No Iterations 6
smoothSolver:  Solving for Uy, Initial residual = 0.0238742, Final residual = 0.00177947, No Iterations 6
GAMG:  Solving for p, Initial residual = 0.0126483, Final residual = 0.000990236, No Iterations 5
time step continuity errors : sum local = 0.0499496, global = 0.00906225, cumulative = 0.948477
smoothSolver:  Solving for epsilon, Initial residual = 0.00333357, Final residual = 0.00030634, No Iterations 3
smoothSolver:  Solving for k, Initial residual = 0.00507072, Final residual = 0.000441408, No Iterations 4
ExecutionTime = 1.68 s  ClockTime = 2 s

Time = 97

smoothSolver:  Solving for Ux, Initial residual = 0.00345954, Final residual = 0.00022834, No Iterations 6
smoothSolver:  Solving for Uy, Initial residual = 0.0240896, Final residual = 0.00179619, No Iterations 6
GAMG:  Solving for p, Initial residual = 0.0124569, Final residual = 0.000953527, No Iterations 5
time step continuity errors : sum local = 0.0480377, global = 0.00854351, cumulative = 0.95702
smoothSolver:  Solving for epsilon, Initial residual = 0.00331165, Final residual = 0.000304614, No Iterations 3
smoothSolver:  Solving for k, Initial residual = 0.00506981, Final residual = 0.000442912, No Iterations 4
ExecutionTime = 1.7 s  ClockTime = 2 s

Time = 98

smoothSolver:  Solving for Ux, Initial residual = 0.00344477, Final residual = 0.000227666, No Iterations 6
smoothSolver:  Solving for Uy, Initial residual = 0.0243045, Final residual = 0.001813, No Iterations 6
GAMG:  Solving for p, Initial residual = 0.0124624, Final residual = 0.000953399, No Iterations 5
time step continuity errors : sum local = 0.0479557, global = 0.00827203, cumulative = 0.965292
smoothSolver:  Solving for epsilon, Initial residual = 0.00329975, Final residual = 0.000304065, No Iterations 3
smoothSolver:  Solving for k, Initial residual = 0.00505166, Final residual = 0.000443375, No Iterations 4
ExecutionTime = 1.71 s  ClockTime = 2 s

Time = 99

smoothSolver:  Solving for Ux, Initial residual = 0.00343174, Final residual = 0.000226959, No Iterations 6
smoothSolver:  Solving for Uy, Initial residual = 0.0244949, Final residual = 0.00182782, No Iterations 6
GAMG:  Solving for p, Initial residual = 0.012473, Final residual = 0.000967691, No Iterations 5
time step continuity errors : sum local = 0.048627, global = 0.00825412, cumulative = 0.973547
smoothSolver:  Solving for epsilon, Initial residual = 0.00327606, Final residual = 0.000301651, No Iterations 3
smoothSolver:  Solving for k, Initial residual = 0.00506654, Final residual = 0.0004458, No Iterations 4
ExecutionTime = 1.74 s  ClockTime = 2 s

Time = 100

smoothSolver:  Solving for Ux, Initial residual = 0.00341688, Final residual = 0.000226105, No Iterations 6
smoothSolver:  Solving for Uy, Initial residual = 0.0246862, Final residual = 0.00184277, No Iterations 6
GAMG:  Solving for p, Initial residual = 0.0124374, Final residual = 0.00097467, No Iterations 5
time step continuity errors : sum local = 0.048922, global = 0.00828754, cumulative = 0.981834
smoothSolver:  Solving for epsilon, Initial residual = 0.00326037, Final residual = 0.000300456, No Iterations 3
smoothSolver:  Solving for k, Initial residual = 0.00506026, Final residual = 0.000446545, No Iterations 4
ExecutionTime = 1.78 s  ClockTime = 2 s

streamLine streamlines write:
    seeded 10 particles
    Tracks:10
    Total samples:10930
Time = 101

smoothSolver:  Solving for Ux, Initial residual = 0.00340033, Final residual = 0.000225141, No Iterations 6
smoothSolver:  Solving for Uy, Initial residual = 0.0248877, Final residual = 0.00185787, No Iterations 6
GAMG:  Solving for p, Initial residual = 0.0124219, Final residual = 0.000971084, No Iterations 5
time step continuity errors : sum local = 0.0486795, global = 0.00824267, cumulative = 0.990077
smoothSolver:  Solving for epsilon, Initial residual = 0.00324555, Final residual = 0.000298735, No Iterations 3
smoothSolver:  Solving for k, Initial residual = 0.00505983, Final residual = 0.000447265, No Iterations 4
ExecutionTime = 1.9 s  ClockTime = 2 s

Time = 102

smoothSolver:  Solving for Ux, Initial residual = 0.00338286, Final residual = 0.000224168, No Iterations 6
smoothSolver:  Solving for Uy, Initial residual = 0.0250856, Final residual = 0.00187245, No Iterations 6
GAMG:  Solving for p, Initial residual = 0.0123834, Final residual = 0.000961075, No Iterations 5
time step continuity errors : sum local = 0.0480863, global = 0.00808662, cumulative = 0.998163
smoothSolver:  Solving for epsilon, Initial residual = 0.00323276, Final residual = 0.000297061, No Iterations 3
smoothSolver:  Solving for k, Initial residual = 0.00506236, Final residual = 0.000448319, No Iterations 4
ExecutionTime = 1.92 s  ClockTime = 2 s

Time = 103

smoothSolver:  Solving for Ux, Initial residual = 0.00336452, Final residual = 0.000223145, No Iterations 6
smoothSolver:  Solving for Uy, Initial residual = 0.0252817, Final residual = 0.00188739, No Iterations 6
GAMG:  Solving for p, Initial residual = 0.012354, Final residual = 0.000949529, No Iterations 5
time step continuity errors : sum local = 0.047413, global = 0.00784325, cumulative = 1.00601
smoothSolver:  Solving for epsilon, Initial residual = 0.00321051, Final residual = 0.00029476, No Iterations 3
smoothSolver:  Solving for k, Initial residual = 0.00507094, Final residual = 0.000449404, No Iterations 4
ExecutionTime = 1.95 s  ClockTime = 2 s

Time = 104

smoothSolver:  Solving for Ux, Initial residual = 0.00334629, Final residual = 0.000222155, No Iterations 6
smoothSolver:  Solving for Uy, Initial residual = 0.0254762, Final residual = 0.00190208, No Iterations 6
GAMG:  Solving for p, Initial residual = 0.0123494, Final residual = 0.000935906, No Iterations 5
time step continuity errors : sum local = 0.046624, global = 0.00755224, cumulative = 1.01356
smoothSolver:  Solving for epsilon, Initial residual = 0.0031905, Final residual = 0.000292347, No Iterations 3
smoothSolver:  Solving for k, Initial residual = 0.00507367, Final residual = 0.000450029, No Iterations 4
ExecutionTime = 1.96 s  ClockTime = 2 s

Time = 105

smoothSolver:  Solving for Ux, Initial residual = 0.00332695, Final residual = 0.000221083, No Iterations 6
smoothSolver:  Solving for Uy, Initial residual = 0.0256694, Final residual = 0.00191628, No Iterations 6
GAMG:  Solving for p, Initial residual = 0.012326, Final residual = 0.00122227, No Iterations 4
time step continuity errors : sum local = 0.0607619, global = -0.0117826, cumulative = 1.00178
smoothSolver:  Solving for epsilon, Initial residual = 0.00318089, Final residual = 0.000290411, No Iterations 3
smoothSolver:  Solving for k, Initial residual = 0.00508132, Final residual = 0.000450904, No Iterations 4
ExecutionTime = 1.97 s  ClockTime = 2 s

Time = 106

smoothSolver:  Solving for Ux, Initial residual = 0.00330829, Final residual = 0.000220206, No Iterations 6
smoothSolver:  Solving for Uy, Initial residual = 0.0258265, Final residual = 0.00192923, No Iterations 6
GAMG:  Solving for p, Initial residual = 0.0124836, Final residual = 0.00124567, No Iterations 5
time step continuity errors : sum local = 0.0618859, global = 0.0101346, cumulative = 1.01191
smoothSolver:  Solving for epsilon, Initial residual = 0.00316184, Final residual = 0.000289342, No Iterations 3
smoothSolver:  Solving for k, Initial residual = 0.00508873, Final residual = 0.000451191, No Iterations 4
ExecutionTime = 1.99 s  ClockTime = 2 s

Time = 107

smoothSolver:  Solving for Ux, Initial residual = 0.00329026, Final residual = 0.000219192, No Iterations 6
smoothSolver:  Solving for Uy, Initial residual = 0.0260031, Final residual = 0.00194218, No Iterations 6
GAMG:  Solving for p, Initial residual = 0.0124615, Final residual = 0.000941945, No Iterations 5
time step continuity errors : sum local = 0.0466394, global = 0.00748074, cumulative = 1.01939
smoothSolver:  Solving for epsilon, Initial residual = 0.00315062, Final residual = 0.000287359, No Iterations 3
smoothSolver:  Solving for k, Initial residual = 0.00508881, Final residual = 0.000451024, No Iterations 4
ExecutionTime = 2 s  ClockTime = 2 s

Time = 108

smoothSolver:  Solving for Ux, Initial residual = 0.00326328, Final residual = 0.000217554, No Iterations 6
smoothSolver:  Solving for Uy, Initial residual = 0.0262068, Final residual = 0.00195796, No Iterations 6
GAMG:  Solving for p, Initial residual = 0.0122574, Final residual = 0.00109216, No Iterations 4
time step continuity errors : sum local = 0.0538724, global = -0.0100242, cumulative = 1.00937
smoothSolver:  Solving for epsilon, Initial residual = 0.00313025, Final residual = 0.000284554, No Iterations 3
smoothSolver:  Solving for k, Initial residual = 0.00509884, Final residual = 0.000451161, No Iterations 4
ExecutionTime = 2.02 s  ClockTime = 2 s

Time = 109

smoothSolver:  Solving for Ux, Initial residual = 0.00324153, Final residual = 0.000216881, No Iterations 6
smoothSolver:  Solving for Uy, Initial residual = 0.0263698, Final residual = 0.00197316, No Iterations 6
GAMG:  Solving for p, Initial residual = 0.0124392, Final residual = 0.00112913, No Iterations 5
time step continuity errors : sum local = 0.0555945, global = 0.0081781, cumulative = 1.01755
smoothSolver:  Solving for epsilon, Initial residual = 0.00313243, Final residual = 0.000283595, No Iterations 3
smoothSolver:  Solving for k, Initial residual = 0.00512221, Final residual = 0.000452803, No Iterations 4
ExecutionTime = 2.03 s  ClockTime = 2 s

Time = 110

smoothSolver:  Solving for Ux, Initial residual = 0.00322673, Final residual = 0.00021623, No Iterations 6
smoothSolver:  Solving for Uy, Initial residual = 0.0265168, Final residual = 0.0019856, No Iterations 6
GAMG:  Solving for p, Initial residual = 0.0125091, Final residual = 0.0011749, No Iterations 4
time step continuity errors : sum local = 0.0576473, global = -0.0105076, cumulative = 1.00704
smoothSolver:  Solving for epsilon, Initial residual = 0.00312426, Final residual = 0.000283147, No Iterations 3
smoothSolver:  Solving for k, Initial residual = 0.00512431, Final residual = 0.000451389, No Iterations 4
ExecutionTime = 2.06 s  ClockTime = 2 s

Time = 111

smoothSolver:  Solving for Ux, Initial residual = 0.00320137, Final residual = 0.000214888, No Iterations 6
smoothSolver:  Solving for Uy, Initial residual = 0.0266758, Final residual = 0.00199938, No Iterations 6
GAMG:  Solving for p, Initial residual = 0.0124939, Final residual = 0.00109435, No Iterations 5
time step continuity errors : sum local = 0.0535996, global = 0.00784721, cumulative = 1.01489
smoothSolver:  Solving for epsilon, Initial residual = 0.00311358, Final residual = 0.000280621, No Iterations 3
smoothSolver:  Solving for k, Initial residual = 0.00513933, Final residual = 0.000452094, No Iterations 4
ExecutionTime = 2.07 s  ClockTime = 2 s

Time = 112

smoothSolver:  Solving for Ux, Initial residual = 0.00318536, Final residual = 0.000214373, No Iterations 6
smoothSolver:  Solving for Uy, Initial residual = 0.0268654, Final residual = 0.00201535, No Iterations 6
GAMG:  Solving for p, Initial residual = 0.012568, Final residual = 0.00105261, No Iterations 4
time step continuity errors : sum local = 0.0513609, global = -0.0094044, cumulative = 1.00548
smoothSolver:  Solving for epsilon, Initial residual = 0.00310178, Final residual = 0.000281078, No Iterations 3
smoothSolver:  Solving for k, Initial residual = 0.00515575, Final residual = 0.000451913, No Iterations 4
ExecutionTime = 2.08 s  ClockTime = 2 s

Time = 113

smoothSolver:  Solving for Ux, Initial residual = 0.00316023, Final residual = 0.000213361, No Iterations 6
smoothSolver:  Solving for Uy, Initial residual = 0.0270312, Final residual = 0.00203004, No Iterations 6
GAMG:  Solving for p, Initial residual = 0.0125486, Final residual = 0.00100907, No Iterations 5
time step continuity errors : sum local = 0.0490674, global = 0.00616895, cumulative = 1.01165
smoothSolver:  Solving for epsilon, Initial residual = 0.0030838, Final residual = 0.000275194, No Iterations 3
smoothSolver:  Solving for k, Initial residual = 0.00517633, Final residual = 0.000452432, No Iterations 4
ExecutionTime = 2.1 s  ClockTime = 2 s

Time = 114

smoothSolver:  Solving for Ux, Initial residual = 0.00314887, Final residual = 0.000213235, No Iterations 6
smoothSolver:  Solving for Uy, Initial residual = 0.0271814, Final residual = 0.00204457, No Iterations 6
GAMG:  Solving for p, Initial residual = 0.012716, Final residual = 0.00106508, No Iterations 4
time step continuity errors : sum local = 0.0516835, global = -0.00853719, cumulative = 1.00311
smoothSolver:  Solving for epsilon, Initial residual = 0.00306839, Final residual = 0.000274207, No Iterations 3
smoothSolver:  Solving for k, Initial residual = 0.00517985, Final residual = 0.000450569, No Iterations 4
ExecutionTime = 2.12 s  ClockTime = 2 s

Time = 115

smoothSolver:  Solving for Ux, Initial residual = 0.00312942, Final residual = 0.00021247, No Iterations 6
smoothSolver:  Solving for Uy, Initial residual = 0.027335, Final residual = 0.0020573, No Iterations 6
GAMG:  Solving for p, Initial residual = 0.0127731, Final residual = 0.000979408, No Iterations 5
time step continuity errors : sum local = 0.0474473, global = 0.00536102, cumulative = 1.00847
smoothSolver:  Solving for epsilon, Initial residual = 0.00306226, Final residual = 0.000272839, No Iterations 3
smoothSolver:  Solving for k, Initial residual = 0.00519, Final residual = 0.0004498, No Iterations 4
ExecutionTime = 2.13 s  ClockTime = 2 s

Time = 116

smoothSolver:  Solving for Ux, Initial residual = 0.00312048, Final residual = 0.00021248, No Iterations 6
[...]
smoothSolver:  Solving for Uy, Initial residual = 0.00280146, Final residual = 0.000204371, No Iterations 6
GAMG:  Solving for p, Initial residual = 0.00186212, Final residual = 0.000181228, No Iterations 5
time step continuity errors : sum local = 0.00866176, global = 0.00042671, cumulative = 1.00681
smoothSolver:  Solving for epsilon, Initial residual = 0.000291234, Final residual = 2.0189e-05, No Iterations 3
smoothSolver:  Solving for k, Initial residual = 0.000605898, Final residual = 3.77175e-05, No Iterations 4
ExecutionTime = 4.39 s  ClockTime = 4 s

Time = 254

smoothSolver:  Solving for Ux, Initial residual = 0.000331977, Final residual = 2.24504e-05, No Iterations 6
smoothSolver:  Solving for Uy, Initial residual = 0.00273181, Final residual = 0.000197722, No Iterations 6
GAMG:  Solving for p, Initial residual = 0.00180521, Final residual = 0.00017884, No Iterations 5
time step continuity errors : sum local = 0.00855424, global = 0.000401688, cumulative = 1.00721
smoothSolver:  Solving for epsilon, Initial residual = 0.000283716, Final residual = 1.96767e-05, No Iterations 3
smoothSolver:  Solving for k, Initial residual = 0.000590516, Final residual = 3.65795e-05, No Iterations 4
ExecutionTime = 4.41 s  ClockTime = 4 s

Time = 255

smoothSolver:  Solving for Ux, Initial residual = 0.000321138, Final residual = 2.17943e-05, No Iterations 6
smoothSolver:  Solving for Uy, Initial residual = 0.00265815, Final residual = 0.000190666, No Iterations 6
GAMG:  Solving for p, Initial residual = 0.00176459, Final residual = 0.000173297, No Iterations 5
time step continuity errors : sum local = 0.00829881, global = 0.000362098, cumulative = 1.00757
smoothSolver:  Solving for epsilon, Initial residual = 0.000277072, Final residual = 1.90733e-05, No Iterations 3
smoothSolver:  Solving for k, Initial residual = 0.000574834, Final residual = 3.54624e-05, No Iterations 4
ExecutionTime = 4.42 s  ClockTime = 4 s

Time = 256

smoothSolver:  Solving for Ux, Initial residual = 0.000310851, Final residual = 2.11711e-05, No Iterations 6
smoothSolver:  Solving for Uy, Initial residual = 0.00257922, Final residual = 0.000183296, No Iterations 6
GAMG:  Solving for p, Initial residual = 0.00171547, Final residual = 0.000167958, No Iterations 5
time step continuity errors : sum local = 0.00804755, global = 0.000328858, cumulative = 1.0079
smoothSolver:  Solving for epsilon, Initial residual = 0.000267901, Final residual = 1.84974e-05, No Iterations 3
smoothSolver:  Solving for k, Initial residual = 0.000557509, Final residual = 3.44198e-05, No Iterations 4
ExecutionTime = 4.44 s  ClockTime = 4 s

Time = 257

smoothSolver:  Solving for Ux, Initial residual = 0.000301155, Final residual = 2.05932e-05, No Iterations 6
smoothSolver:  Solving for Uy, Initial residual = 0.00249571, Final residual = 0.000175651, No Iterations 6
GAMG:  Solving for p, Initial residual = 0.00167386, Final residual = 0.00016142, No Iterations 5
time step continuity errors : sum local = 0.00774136, global = 0.000290468, cumulative = 1.00819
smoothSolver:  Solving for epsilon, Initial residual = 0.000261523, Final residual = 1.79047e-05, No Iterations 3
smoothSolver:  Solving for k, Initial residual = 0.000544039, Final residual = 3.33814e-05, No Iterations 4
ExecutionTime = 4.45 s  ClockTime = 4 s

Time = 258

smoothSolver:  Solving for Ux, Initial residual = 0.000292289, Final residual = 2.00391e-05, No Iterations 6
smoothSolver:  Solving for Uy, Initial residual = 0.0024077, Final residual = 0.000167895, No Iterations 6
GAMG:  Solving for p, Initial residual = 0.00163959, Final residual = 0.000155816, No Iterations 5
time step continuity errors : sum local = 0.00747531, global = 0.000265913, cumulative = 1.00846
smoothSolver:  Solving for epsilon, Initial residual = 0.000252467, Final residual = 1.73248e-05, No Iterations 3
smoothSolver:  Solving for k, Initial residual = 0.000527973, Final residual = 3.24001e-05, No Iterations 4
ExecutionTime = 4.47 s  ClockTime = 4 s

Time = 259

smoothSolver:  Solving for Ux, Initial residual = 0.000283785, Final residual = 1.95108e-05, No Iterations 6
smoothSolver:  Solving for Uy, Initial residual = 0.00231684, Final residual = 0.000160088, No Iterations 6
GAMG:  Solving for p, Initial residual = 0.00158785, Final residual = 0.000150578, No Iterations 5
time step continuity errors : sum local = 0.00722986, global = 0.000250447, cumulative = 1.00871
smoothSolver:  Solving for epsilon, Initial residual = 0.000246636, Final residual = 1.66557e-05, No Iterations 3
smoothSolver:  Solving for k, Initial residual = 0.000512929, Final residual = 3.123e-05, No Iterations 4
ExecutionTime = 4.48 s  ClockTime = 4 s

Time = 260

smoothSolver:  Solving for Ux, Initial residual = 0.000275839, Final residual = 1.89793e-05, No Iterations 6
smoothSolver:  Solving for Uy, Initial residual = 0.00222289, Final residual = 0.000152357, No Iterations 6
GAMG:  Solving for p, Initial residual = 0.00153315, Final residual = 0.000146256, No Iterations 5
time step continuity errors : sum local = 0.00702349, global = 0.000256728, cumulative = 1.00896
smoothSolver:  Solving for epsilon, Initial residual = 0.00023737, Final residual = 1.6137e-05, No Iterations 3
smoothSolver:  Solving for k, Initial residual = 0.000497535, Final residual = 3.02914e-05, No Iterations 4
ExecutionTime = 4.5 s  ClockTime = 4 s

Time = 261

smoothSolver:  Solving for Ux, Initial residual = 0.0002682, Final residual = 1.8448e-05, No Iterations 6
smoothSolver:  Solving for Uy, Initial residual = 0.00212962, Final residual = 0.000144759, No Iterations 6
GAMG:  Solving for p, Initial residual = 0.00149153, Final residual = 0.000140791, No Iterations 5
time step continuity errors : sum local = 0.00676446, global = 0.000279347, cumulative = 1.00924
smoothSolver:  Solving for epsilon, Initial residual = 0.000231316, Final residual = 1.5385e-05, No Iterations 3
smoothSolver:  Solving for k, Initial residual = 0.000481049, Final residual = 2.92497e-05, No Iterations 4
ExecutionTime = 4.51 s  ClockTime = 4 s

Time = 262

smoothSolver:  Solving for Ux, Initial residual = 0.000260718, Final residual = 1.79019e-05, No Iterations 6
smoothSolver:  Solving for Uy, Initial residual = 0.00203761, Final residual = 0.000137361, No Iterations 6
GAMG:  Solving for p, Initial residual = 0.00144642, Final residual = 0.000136608, No Iterations 5
time step continuity errors : sum local = 0.00656344, global = 0.000320482, cumulative = 1.00956
smoothSolver:  Solving for epsilon, Initial residual = 0.000222016, Final residual = 1.48352e-05, No Iterations 3
smoothSolver:  Solving for k, Initial residual = 0.000464877, Final residual = 2.82261e-05, No Iterations 4
ExecutionTime = 4.54 s  ClockTime = 4 s

Time = 263

smoothSolver:  Solving for Ux, Initial residual = 0.000253797, Final residual = 1.7345e-05, No Iterations 6
smoothSolver:  Solving for Uy, Initial residual = 0.00194691, Final residual = 0.00013025, No Iterations 6
GAMG:  Solving for p, Initial residual = 0.0014105, Final residual = 0.000130931, No Iterations 5
time step continuity errors : sum local = 0.00629285, global = 0.00036862, cumulative = 1.00993
smoothSolver:  Solving for epsilon, Initial residual = 0.000216338, Final residual = 1.41006e-05, No Iterations 3
smoothSolver:  Solving for k, Initial residual = 0.000447909, Final residual = 2.72085e-05, No Iterations 4
ExecutionTime = 4.56 s  ClockTime = 4 s

Time = 264

smoothSolver:  Solving for Ux, Initial residual = 0.00024661, Final residual = 1.67588e-05, No Iterations 6
smoothSolver:  Solving for Uy, Initial residual = 0.00185803, Final residual = 0.000123502, No Iterations 6
GAMG:  Solving for p, Initial residual = 0.00135514, Final residual = 0.000125385, No Iterations 5
time step continuity errors : sum local = 0.00602531, global = 0.000411605, cumulative = 1.01034
smoothSolver:  Solving for epsilon, Initial residual = 0.000207003, Final residual = 1.35547e-05, No Iterations 3
smoothSolver:  Solving for k, Initial residual = 0.00043243, Final residual = 2.61595e-05, No Iterations 4
ExecutionTime = 4.57 s  ClockTime = 4 s

Time = 265

smoothSolver:  Solving for Ux, Initial residual = 0.000239447, Final residual = 1.61534e-05, No Iterations 6
smoothSolver:  Solving for Uy, Initial residual = 0.00177235, Final residual = 0.000117148, No Iterations 6
GAMG:  Solving for p, Initial residual = 0.00132237, Final residual = 0.0001179, No Iterations 5
time step continuity errors : sum local = 0.00566592, global = 0.000396329, cumulative = 1.01074
smoothSolver:  Solving for epsilon, Initial residual = 0.000201363, Final residual = 1.283e-05, No Iterations 3
smoothSolver:  Solving for k, Initial residual = 0.000415361, Final residual = 2.51938e-05, No Iterations 4
ExecutionTime = 4.59 s  ClockTime = 4 s

Time = 266

smoothSolver:  Solving for Ux, Initial residual = 0.000231832, Final residual = 1.5519e-05, No Iterations 6
smoothSolver:  Solving for Uy, Initial residual = 0.00169052, Final residual = 0.000111296, No Iterations 6
GAMG:  Solving for p, Initial residual = 0.0012667, Final residual = 0.000116547, No Iterations 5
time step continuity errors : sum local = 0.00559939, global = 0.000211242, cumulative = 1.01095
smoothSolver:  Solving for epsilon, Initial residual = 0.000192067, Final residual = 1.2277e-05, No Iterations 3
smoothSolver:  Solving for k, Initial residual = 0.000399825, Final residual = 2.41366e-05, No Iterations 4
ExecutionTime = 4.6 s  ClockTime = 5 s

Time = 267

smoothSolver:  Solving for Ux, Initial residual = 0.000224158, Final residual = 1.48703e-05, No Iterations 6
smoothSolver:  Solving for Uy, Initial residual = 0.00161249, Final residual = 0.000105943, No Iterations 6
GAMG:  Solving for p, Initial residual = 0.00123072, Final residual = 0.000102664, No Iterations 5
time step continuity errors : sum local = 0.00493187, global = -0.00028767, cumulative = 1.01066
smoothSolver:  Solving for epsilon, Initial residual = 0.000187025, Final residual = 1.17003e-05, No Iterations 3
smoothSolver:  Solving for k, Initial residual = 0.000383648, Final residual = 2.32158e-05, No Iterations 4
ExecutionTime = 4.62 s  ClockTime = 5 s

Time = 268

smoothSolver:  Solving for Ux, Initial residual = 0.000216536, Final residual = 1.42526e-05, No Iterations 6
smoothSolver:  Solving for Uy, Initial residual = 0.00153438, Final residual = 0.000100962, No Iterations 6
GAMG:  Solving for p, Initial residual = 0.00119843, Final residual = 9.93644e-05, No Iterations 5
time step continuity errors : sum local = 0.0047721, global = -0.000320123, cumulative = 1.01034
smoothSolver:  Solving for epsilon, Initial residual = 0.000178405, Final residual = 1.11839e-05, No Iterations 3
smoothSolver:  Solving for k, Initial residual = 0.000368784, Final residual = 2.22973e-05, No Iterations 4
ExecutionTime = 4.63 s  ClockTime = 5 s

Time = 269

smoothSolver:  Solving for Ux, Initial residual = 0.000208495, Final residual = 1.35981e-05, No Iterations 6
smoothSolver:  Solving for Uy, Initial residual = 0.00146127, Final residual = 9.64297e-05, No Iterations 6
GAMG:  Solving for p, Initial residual = 0.00116859, Final residual = 9.77125e-05, No Iterations 5
time step continuity errors : sum local = 0.00469195, global = -0.000350623, cumulative = 1.00999
smoothSolver:  Solving for epsilon, Initial residual = 0.000173917, Final residual = 1.06302e-05, No Iterations 3
smoothSolver:  Solving for k, Initial residual = 0.000353808, Final residual = 2.14221e-05, No Iterations 4
ExecutionTime = 4.65 s  ClockTime = 5 s

Time = 270

smoothSolver:  Solving for Ux, Initial residual = 0.000200015, Final residual = 1.29331e-05, No Iterations 6
smoothSolver:  Solving for Uy, Initial residual = 0.00139524, Final residual = 9.2506e-05, No Iterations 6
GAMG:  Solving for p, Initial residual = 0.00114061, Final residual = 9.71172e-05, No Iterations 5
time step continuity errors : sum local = 0.00466115, global = -0.000362307, cumulative = 1.00963
smoothSolver:  Solving for epsilon, Initial residual = 0.000165459, Final residual = 1.01621e-05, No Iterations 3
smoothSolver:  Solving for k, Initial residual = 0.000339828, Final residual = 2.05827e-05, No Iterations 4
ExecutionTime = 4.66 s  ClockTime = 5 s

Time = 271

smoothSolver:  Solving for Ux, Initial residual = 0.00019141, Final residual = 1.22694e-05, No Iterations 6
smoothSolver:  Solving for Uy, Initial residual = 0.0013351, Final residual = 8.91362e-05, No Iterations 6
GAMG:  Solving for p, Initial residual = 0.00110919, Final residual = 9.6812e-05, No Iterations 5
time step continuity errors : sum local = 0.00464496, global = -0.000353023, cumulative = 1.00928
smoothSolver:  Solving for epsilon, Initial residual = 0.000162029, Final residual = 9.64841e-06, No Iterations 3
smoothSolver:  Solving for k, Initial residual = 0.000325909, Final residual = 1.97864e-05, No Iterations 4
ExecutionTime = 4.68 s  ClockTime = 5 s

Time = 272

smoothSolver:  Solving for Ux, Initial residual = 0.000182779, Final residual = 1.81716e-05, No Iterations 5
smoothSolver:  Solving for Uy, Initial residual = 0.00128134, Final residual = 8.63883e-05, No Iterations 6
GAMG:  Solving for p, Initial residual = 0.00108182, Final residual = 9.21647e-05, No Iterations 5
time step continuity errors : sum local = 0.00441915, global = -0.000327908, cumulative = 1.00895
smoothSolver:  Solving for epsilon, Initial residual = 0.000154601, Final residual = 9.26398e-06, No Iterations 3
smoothSolver:  Solving for k, Initial residual = 0.00031326, Final residual = 1.9051e-05, No Iterations 4
ExecutionTime = 4.69 s  ClockTime = 5 s

Time = 273

smoothSolver:  Solving for Ux, Initial residual = 0.000175305, Final residual = 1.73364e-05, No Iterations 5
smoothSolver:  Solving for Uy, Initial residual = 0.00121766, Final residual = 8.30106e-05, No Iterations 6
GAMG:  Solving for p, Initial residual = 0.00104677, Final residual = 9.29515e-05, No Iterations 5
time step continuity errors : sum local = 0.00445621, global = -0.000330166, cumulative = 1.00862
smoothSolver:  Solving for epsilon, Initial residual = 0.000150976, Final residual = 8.8119e-06, No Iterations 3
smoothSolver:  Solving for k, Initial residual = 0.000300542, Final residual = 1.83302e-05, No Iterations 4
ExecutionTime = 4.72 s  ClockTime = 5 s

Time = 274

smoothSolver:  Solving for Ux, Initial residual = 0.00016766, Final residual = 1.64856e-05, No Iterations 5
smoothSolver:  Solving for Uy, Initial residual = 0.00116726, Final residual = 8.05246e-05, No Iterations 6
GAMG:  Solving for p, Initial residual = 0.00101176, Final residual = 9.28971e-05, No Iterations 5
time step continuity errors : sum local = 0.00445066, global = -0.000328899, cumulative = 1.00829
smoothSolver:  Solving for epsilon, Initial residual = 0.000144417, Final residual = 8.48457e-06, No Iterations 3
smoothSolver:  Solving for k, Initial residual = 0.00028913, Final residual = 1.76927e-05, No Iterations 4
ExecutionTime = 4.73 s  ClockTime = 5 s

Time = 275

smoothSolver:  Solving for Ux, Initial residual = 0.000159986, Final residual = 1.56438e-05, No Iterations 5
smoothSolver:  Solving for Uy, Initial residual = 0.00113012, Final residual = 7.89249e-05, No Iterations 6
GAMG:  Solving for p, Initial residual = 0.000980736, Final residual = 9.25665e-05, No Iterations 5
time step continuity errors : sum local = 0.00443367, global = -0.000320935, cumulative = 1.00797
smoothSolver:  Solving for epsilon, Initial residual = 0.000141517, Final residual = 8.10565e-06, No Iterations 3
smoothSolver:  Solving for k, Initial residual = 0.000277802, Final residual = 1.70207e-05, No Iterations 4
ExecutionTime = 4.75 s  ClockTime = 5 s

Time = 276

smoothSolver:  Solving for Ux, Initial residual = 0.00015243, Final residual = 1.48388e-05, No Iterations 5
smoothSolver:  Solving for Uy, Initial residual = 0.00110102, Final residual = 7.77446e-05, No Iterations 6
GAMG:  Solving for p, Initial residual = 0.000937363, Final residual = 9.06165e-05, No Iterations 5
time step continuity errors : sum local = 0.00433747, global = -0.000307405, cumulative = 1.00766
smoothSolver:  Solving for epsilon, Initial residual = 0.000135693, Final residual = 7.84271e-06, No Iterations 3
smoothSolver:  Solving for k, Initial residual = 0.000267618, Final residual = 1.64554e-05, No Iterations 4
ExecutionTime = 4.76 s  ClockTime = 5 s

Time = 277

smoothSolver:  Solving for Ux, Initial residual = 0.000145235, Final residual = 1.40954e-05, No Iterations 5
smoothSolver:  Solving for Uy, Initial residual = 0.00107722, Final residual = 7.64199e-05, No Iterations 6
GAMG:  Solving for p, Initial residual = 0.000909841, Final residual = 8.79734e-05, No Iterations 5
time step continuity errors : sum local = 0.00420936, global = -0.000291991, cumulative = 1.00737
smoothSolver:  Solving for epsilon, Initial residual = 0.000133364, Final residual = 7.54515e-06, No Iterations 3
smoothSolver:  Solving for k, Initial residual = 0.00025753, Final residual = 1.59095e-05, No Iterations 4
ExecutionTime = 4.77 s  ClockTime = 5 s

Time = 278

smoothSolver:  Solving for Ux, Initial residual = 0.000138477, Final residual = 1.34198e-05, No Iterations 5
smoothSolver:  Solving for Uy, Initial residual = 0.00105056, Final residual = 7.47896e-05, No Iterations 6
GAMG:  Solving for p, Initial residual = 0.000865132, Final residual = 8.36166e-05, No Iterations 5
time step continuity errors : sum local = 0.00399849, global = -0.000275444, cumulative = 1.00709
smoothSolver:  Solving for epsilon, Initial residual = 0.000128143, Final residual = 7.3705e-06, No Iterations 3
smoothSolver:  Solving for k, Initial residual = 0.00024888, Final residual = 1.54499e-05, No Iterations 4
ExecutionTime = 4.8 s  ClockTime = 5 s

Time = 279

smoothSolver:  Solving for Ux, Initial residual = 0.000132372, Final residual = 1.28157e-05, No Iterations 5
smoothSolver:  Solving for Uy, Initial residual = 0.00103035, Final residual = 7.2895e-05, No Iterations 6
GAMG:  Solving for p, Initial residual = 0.000837667, Final residual = 7.96799e-05, No Iterations 5
time step continuity errors : sum local = 0.00380887, global = -0.000260816, cumulative = 1.00683
smoothSolver:  Solving for epsilon, Initial residual = 0.000126282, Final residual = 7.12803e-06, No Iterations 3
smoothSolver:  Solving for k, Initial residual = 0.000240076, Final residual = 1.49787e-05, No Iterations 4
ExecutionTime = 4.81 s  ClockTime = 5 s

Time = 280

smoothSolver:  Solving for Ux, Initial residual = 0.000126751, Final residual = 1.22835e-05, No Iterations 5
smoothSolver:  Solving for Uy, Initial residual = 0.0010066, Final residual = 7.07918e-05, No Iterations 6
GAMG:  Solving for p, Initial residual = 0.000801315, Final residual = 7.50181e-05, No Iterations 5
time step continuity errors : sum local = 0.00358398, global = -0.000247508, cumulative = 1.00659
smoothSolver:  Solving for epsilon, Initial residual = 0.000122189, Final residual = 7.03183e-06, No Iterations 3
smoothSolver:  Solving for k, Initial residual = 0.00023329, Final residual = 1.45933e-05, No Iterations 4
ExecutionTime = 4.83 s  ClockTime = 5 s

Time = 281

smoothSolver:  Solving for Ux, Initial residual = 0.000121693, Final residual = 1.18184e-05, No Iterations 5
smoothSolver:  Solving for Uy, Initial residual = 0.000983823, Final residual = 6.85698e-05, No Iterations 6
GAMG:  Solving for p, Initial residual = 0.000785893, Final residual = 7.08069e-05, No Iterations 5
time step continuity errors : sum local = 0.00338164, global = -0.000238424, cumulative = 1.00635
smoothSolver:  Solving for epsilon, Initial residual = 0.000120858, Final residual = 6.88789e-06, No Iterations 3
smoothSolver:  Solving for k, Initial residual = 0.000226125, Final residual = 1.42193e-05, No Iterations 4
ExecutionTime = 4.84 s  ClockTime = 5 s


SIMPLE solution converged in 281 iterations

streamLine streamlines write:
    seeded 10 particles
    Tracks:10
    Total samples:10885
End

